
     RDKit          2D

  0  0  0  0  0  0  0  0  0  0999 V3000
M  V30 BEGIN CTAB
M  V30 COUNTS 12 11 1 0 0
M  V30 BEGIN ATOM
M  V30 1 H -1.299192 -0.448650 0.000000 0
M  V30 2 H 1.298821 0.051450 0.000000 0
M  V30 3 C -0.433188 0.051450 0.000000 0
M  V30 4 C 0.432817 -0.448650 0.000000 0
M  V30 5 C 0.432817 -1.448675 0.000000 0
M  V30 6 O 1.298796 -1.948756 0.000000 0
M  V30 7 O -0.433336 -1.948519 0.000000 0
M  V30 8 C -0.433336 -2.948543 0.000000 0
M  V30 9 C 0.432644 -3.448624 0.000000 0
M  V30 10 C 0.432470 -4.448549 0.000000 0
M  V30 11 C -1.299488 -3.448387 0.000000 0
M  V30 12 C -1.299488 -4.448412 0.000000 0
M  V30 END ATOM
M  V30 BEGIN BOND
M  V30 1 1 3 4
M  V30 2 1 4 5
M  V30 3 2 5 6
M  V30 4 1 5 7
M  V30 5 1 7 8
M  V30 6 1 8 9
M  V30 7 1 9 10
M  V30 8 1 8 11
M  V30 9 1 11 12
M  V30 10 1 1 3
M  V30 11 1 2 4
M  V30 END BOND
M  V30 BEGIN SGROUP
M  V30 1 SRU 0 ATOMS=(4 1 2 3 4) CBONDS=(2 10 11) -
M  V30 BRKXYZ=(9 -0.8662 0.3015 0 -0.8662 -0.6987 0 0 0 0) BRKXYZ=(9 0.8658 0.-
M  V30 3015 0 0.8658 -0.6987 0 0 0 0)
M  V30 END SGROUP
M  V30 END CTAB
M  END
>  <BIGSMILES_BRACKET_RECORDS_JSON>
{
  "records": [
    {
      "id": 0,
      "bracket_kind": "backbone",
      "pairing_id": "F1/fragments[0]",
      "group_id": "$a:2",
      "ru_midpoint": [
        -0.00018889284667655826,
        -0.19860608599090557
      ],
      "bond_midpoint": [
        -0.8661899015539974,
        -0.19860000000000005
      ],
      "orientation_vector": [
        0.0,
        1.0
      ],
      "half_bracket_size": 0.500100159950025,
      "bond": [
        0,
        2
      ],
      "fragment": "F1",
      "backbone": true,
      "suspended_anchor_atom": null,
      "suspended_reason": null,
      "source_label": "F1/fragments[0]",
      "marker_id": "0",
      "side": "left",
      "connection_group": "$a",
      "marker_type_index": 2
    },
    {
      "id": 1,
      "bracket_kind": "backbone",
      "pairing_id": "F1/fragments[0]",
      "group_id": "$a:2",
      "ru_midpoint": [
        -0.00018889284667655826,
        -0.19860608599090557
      ],
      "bond_midpoint": [
        0.8658191400135796,
        -0.19860000000000005
      ],
      "orientation_vector": [
        0.0,
        1.0
      ],
      "half_bracket_size": 0.500100159950025,
      "bond": [
        1,
        3
      ],
      "fragment": "F1",
      "backbone": true,
      "suspended_anchor_atom": null,
      "suspended_reason": null,
      "source_label": "F1/fragments[0]",
      "marker_id": "11",
      "side": "right",
      "connection_group": "$a",
      "marker_type_index": 2
    }
  ]
}
