
     RDKit          2D

  0  0  0  0  0  0  0  0  0  0999 V3000
M  V30 BEGIN CTAB
M  V30 COUNTS 20 21 3 0 0
M  V30 BEGIN ATOM
M  V30 1 H -3.474837 -0.603108 0.000000 0
M  V30 2 H 3.752612 0.205908 0.000000 0
M  V30 3 C -2.887052 0.205908 0.000000 0
M  V30 4 C -2.299267 -0.603108 0.000000 0
M  V30 5 C -1.299250 -0.603108 0.000000 0
M  V30 6 O -0.990227 -1.554181 0.000000 0
M  V30 7 C -1.799258 -2.141977 0.000000 0
M  V30 8 C -1.799258 -3.141973 0.000000 0
M  V30 9 C -2.665253 -3.642062 0.000000 0
M  V30 10 O -2.608289 -1.554181 0.000000 0
M  V30 11 C -0.711464 0.205908 0.000000 0
M  V30 12 C 0.288536 0.205908 0.000000 0
M  V30 13 C 1.154561 -0.294092 0.000000 0
M  V30 14 C 2.020574 0.205901 0.000000 0
M  V30 15 C 2.886587 -0.294092 0.000000 0
M  V30 16 O 2.886587 -1.294077 0.000000 0
M  V30 17 C 2.020574 -1.794070 0.000000 0
M  V30 18 C 2.020574 -2.794085 0.000000 0
M  V30 19 C 2.886528 -3.294259 0.000000 0
M  V30 20 O 1.154561 -1.294077 0.000000 0
M  V30 END ATOM
M  V30 BEGIN BOND
M  V30 1 1 3 4
M  V30 2 1 4 5
M  V30 3 1 5 6
M  V30 4 1 6 7
M  V30 5 1 7 8
M  V30 6 1 8 9
M  V30 7 1 7 10
M  V30 8 1 5 11
M  V30 9 1 10 4
M  V30 10 1 12 13
M  V30 11 1 13 14
M  V30 12 1 14 15
M  V30 13 1 15 16
M  V30 14 1 16 17
M  V30 15 1 17 18
M  V30 16 1 18 19
M  V30 17 1 17 20
M  V30 18 1 20 13
M  V30 19 1 11 12
M  V30 20 1 1 3
M  V30 21 1 2 15
M  V30 END BOND
M  V30 BEGIN SGROUP
M  V30 1 SRU 0 ATOMS=(4 1 3 11 12) CBONDS=(2 19 20) -
M  V30 BRKXYZ=(9 -3.1809 2.1493 0 -3.1809 -2.5465 0 0 0 0) BRKXYZ=(9 -0.2115 2-
M  V30 .5538 0 -0.2115 -2.1420 0 0 0 0)
M  V30 2 SRU 0 ATOMS=(4 2 11 12 15) CBONDS=(2 19 21) -
M  V30 BRKXYZ=(9 -0.2115 2.5538 0 -0.2115 -2.1420 0 0 0 0) BRKXYZ=(9 3.3196 2.-
M  V30 3038 0 3.3196 -2.3920 0 0 0 0)
M  V30 3 SRU 0 ATOMS=(4 1 2 3 15) CBONDS=(2 20 21) -
M  V30 BRKXYZ=(9 -3.1809 3.6494 0 -3.1809 -4.0466 0 0 0 0) BRKXYZ=(9 3.3196 3.-
M  V30 8039 0 3.3196 -3.8921 0 0 0 0)
M  V30 END SGROUP
M  V30 END CTAB
M  END
>  <BIGSMILES_BRACKET_RECORDS_JSON>
{
  "records": [
    {
      "id": 0,
      "bracket_kind": "backbone",
      "pairing_id": "F1/fragments[0]",
      "group_id": "$a:2",
      "ru_midpoint": [
        -1.6601255406503053,
        -1.3914986129719842
      ],
      "bond_midpoint": [
        -3.18094464301793,
        -0.19860000000000022
      ],
      "orientation_vector": [
        0.0,
        1.0
      ],
      "half_bracket_size": 2.3478850483449776,
      "bond": [
        0,
        2
      ],
      "fragment": "F1",
      "backbone": true,
      "suspended_anchor_atom": null,
      "suspended_reason": null,
      "source_label": "F1/fragments[0]",
      "marker_id": "0",
      "side": "left",
      "connection_group": "$a",
      "marker_type_index": 2
    },
    {
      "id": 1,
      "bracket_kind": "backbone",
      "pairing_id": "F1/fragments[0]",
      "group_id": "$a:2",
      "ru_midpoint": [
        -1.6601255406503053,
        -1.3914986129719842
      ],
      "bond_midpoint": [
        -0.2114644310098166,
        0.20590849718747362
      ],
      "orientation_vector": [
        0.0,
        1.0
      ],
      "half_bracket_size": 2.3478850483449776,
      "bond": [
        10,
        11
      ],
      "fragment": "F1",
      "backbone": true,
      "suspended_anchor_atom": null,
      "suspended_reason": null,
      "source_label": "F1/fragments[0]",
      "marker_id": "10",
      "side": "right",
      "connection_group": "$a",
      "marker_type_index": 2
    },
    {
      "id": 2,
      "bracket_kind": "backbone",
      "pairing_id": "F1/fragments[1]",
      "group_id": "$a:2",
      "ru_midpoint": [
        1.7319001356372983,
        -0.5163089469652136
      ],
      "bond_midpoint": [
        -0.2114644310098166,
        0.20590849718747362
      ],
      "orientation_vector": [
        0.0,
        1.0
      ],
      "half_bracket_size": 2.3478850483449776,
      "bond": [
        10,
        11
      ],
      "fragment": "F1",
      "backbone": true,
      "suspended_anchor_atom": null,
      "suspended_reason": null,
      "source_label": "F1/fragments[1]",
      "marker_id": "0",
      "side": "left",
      "connection_group": "$a",
      "marker_type_index": 2
    },
    {
      "id": 3,
      "bracket_kind": "backbone",
      "pairing_id": "F1/fragments[1]",
      "group_id": "$a:2",
      "ru_midpoint": [
        1.7319001356372983,
        -0.5163089469652136
      ],
      "bond_midpoint": [
        3.3195995622821006,
        -0.044091502812525774
      ],
      "orientation_vector": [
        0.0,
        1.0
      ],
      "half_bracket_size": 2.3478850483449776,
      "bond": [
        1,
        14
      ],
      "fragment": "F1",
      "backbone": true,
      "suspended_anchor_atom": null,
      "suspended_reason": null,
      "source_label": "F1/fragments[1]",
      "marker_id": "10",
      "side": "right",
      "connection_group": "$a",
      "marker_type_index": 2
    },
    {
      "id": 4,
      "bracket_kind": "backbone",
      "pairing_id": "F1/connected",
      "group_id": "$overall",
      "ru_midpoint": [
        0.05440263120732869,
        -0.7604002911056155
      ],
      "bond_midpoint": [
        -3.18094464301793,
        -0.19860000000000022
      ],
      "orientation_vector": [
        0.0,
        1.0
      ],
      "half_bracket_size": 3.8479703441255886,
      "bond": [
        0,
        2
      ],
      "fragment": "F1",
      "backbone": true,
      "suspended_anchor_atom": null,
      "suspended_reason": null,
      "source_label": "F1/connected",
      "marker_id": "connected-overall-left",
      "side": "left",
      "connection_group": "$overall",
      "marker_type_index": null
    },
    {
      "id": 5,
      "bracket_kind": "backbone",
      "pairing_id": "F1/connected",
      "group_id": "$overall",
      "ru_midpoint": [
        0.05440263120732869,
        -0.7604002911056155
      ],
      "bond_midpoint": [
        3.3195995622821006,
        -0.044091502812525774
      ],
      "orientation_vector": [
        0.0,
        1.0
      ],
      "half_bracket_size": 3.8479703441255886,
      "bond": [
        1,
        14
      ],
      "fragment": "F1",
      "backbone": true,
      "suspended_anchor_atom": null,
      "suspended_reason": null,
      "source_label": "F1/connected",
      "marker_id": "connected-overall-right",
      "side": "right",
      "connection_group": "$overall",
      "marker_type_index": null
    }
  ]
}
