
     RDKit          2D

  0  0  0  0  0  0  0  0  0  0999 V3000
M  V30 BEGIN CTAB
M  V30 COUNTS 14 13 1 0 0
M  V30 BEGIN ATOM
M  V30 1 H -4.763454 0.051350 0.000000 0
M  V30 2 H 4.763055 -0.448550 0.000000 0
M  V30 3 C -3.897471 -0.448550 0.000000 0
M  V30 4 O -3.897462 -1.448552 0.000000 0
M  V30 5 C -3.031488 0.051350 0.000000 0
M  V30 6 C -2.165468 -0.448550 0.000000 0
M  V30 7 C -1.299369 0.051350 0.000000 0
M  V30 8 O -1.299378 1.051153 0.000000 0
M  V30 9 O -0.433234 -0.448550 0.000000 0
M  V30 10 C 0.432865 0.051350 0.000000 0
M  V30 11 C 1.299086 -0.448550 0.000000 0
M  V30 12 C 2.165069 0.051350 0.000000 0
M  V30 13 C 3.031089 -0.448550 0.000000 0
M  V30 14 O 3.897072 0.051350 0.000000 0
M  V30 END ATOM
M  V30 BEGIN BOND
M  V30 1 2 3 4
M  V30 2 1 3 5
M  V30 3 1 5 6
M  V30 4 1 6 7
M  V30 5 2 7 8
M  V30 6 1 7 9
M  V30 7 1 9 10
M  V30 8 1 10 11
M  V30 9 1 11 12
M  V30 10 1 12 13
M  V30 11 1 13 14
M  V30 12 1 1 3
M  V30 13 1 2 14
M  V30 END BOND
M  V30 BEGIN SGROUP
M  V30 1 SRU 0 ATOMS=(4 1 2 3 14) CBONDS=(2 12 13) -
M  V30 BRKXYZ=(9 -4.3305 0.3013 0 -4.3305 -0.6985 0 0 0 0) BRKXYZ=(9 4.3301 0.-
M  V30 3013 0 4.3301 -0.6985 0 0 0 0)
M  V30 END SGROUP
M  V30 END CTAB
M  END
>  <BIGSMILES_BRACKET_RECORDS_JSON>
{
  "records": [
    {
      "id": 0,
      "bracket_kind": "backbone",
      "pairing_id": "F1/fragments[0]",
      "group_id": "<1:3",
      "ru_midpoint": [
        -0.00018722039336172003,
        -0.1986
      ],
      "bond_midpoint": [
        -4.330462614021787,
        -0.1985999999999999
      ],
      "orientation_vector": [
        0.0,
        1.0
      ],
      "half_bracket_size": 0.49990099985032643,
      "bond": [
        0,
        2
      ],
      "fragment": "F1",
      "backbone": true,
      "suspended_anchor_atom": null,
      "suspended_reason": null,
      "source_label": "F1/fragments[0]",
      "marker_id": "0",
      "side": "left",
      "connection_group": "<1",
      "marker_type_index": 3
    },
    {
      "id": 1,
      "bracket_kind": "backbone",
      "pairing_id": "F1/fragments[0]",
      "group_id": ">1:4",
      "ru_midpoint": [
        -0.00018722039336172003,
        -0.1986
      ],
      "bond_midpoint": [
        4.330063745661321,
        -0.19860000000000005
      ],
      "orientation_vector": [
        0.0,
        1.0
      ],
      "half_bracket_size": 0.49990099985032643,
      "bond": [
        1,
        13
      ],
      "fragment": "F1",
      "backbone": true,
      "suspended_anchor_atom": null,
      "suspended_reason": null,
      "source_label": "F1/fragments[0]",
      "marker_id": "13",
      "side": "right",
      "connection_group": ">1",
      "marker_type_index": 4
    }
  ]
}
