
     RDKit          2D

  0  0  0  0  0  0  0  0  0  0999 V3000
M  V30 BEGIN CTAB
M  V30 COUNTS 11 11 1 0 0
M  V30 BEGIN ATOM
M  V30 1 H -2.567210 0.118374 0.000000 0
M  V30 2 H 2.432790 -0.381626 0.000000 0
M  V30 3 O -1.567210 -0.381626 0.000000 0
M  V30 4 C -0.567210 -0.381626 0.000000 0
M  V30 5 C -0.067210 0.484399 0.000000 0
M  V30 6 C -0.567154 1.350327 0.000000 0
M  V30 7 C 0.932790 0.484399 0.000000 0
M  V30 8 C 1.432790 -0.381626 0.000000 0
M  V30 9 C 0.932790 -1.247651 0.000000 0
M  V30 10 C -0.067210 -1.247651 0.000000 0
M  V30 11 C -0.567193 -2.113648 0.000000 0
M  V30 END ATOM
M  V30 BEGIN BOND
M  V30 1 1 3 4
M  V30 2 2 4 5
M  V30 3 1 5 6
M  V30 4 1 5 7
M  V30 5 2 7 8
M  V30 6 1 8 9
M  V30 7 2 9 10
M  V30 8 1 10 11
M  V30 9 1 10 4
M  V30 10 1 1 3
M  V30 11 1 2 8
M  V30 END BOND
M  V30 BEGIN SGROUP
M  V30 1 SRU 0 ATOMS=(4 1 2 3 8) CBONDS=(2 10 11) -
M  V30 BRKXYZ=(9 -2.0672 1.6004 0 -2.0672 -1.8637 0 0 0 0) BRKXYZ=(9 1.9328 1.-
M  V30 3504 0 1.9328 -2.1137 0 0 0 0)
M  V30 END SGROUP
M  V30 END CTAB
M  END
>  <BIGSMILES_BRACKET_RECORDS_JSON>
{
  "records": [
    {
      "id": 0,
      "bracket_kind": "backbone",
      "pairing_id": "F1/fragments[0]",
      "group_id": "<1:3",
      "ru_midpoint": [
        0.04736059346313315,
        -0.43717858804474785
      ],
      "bond_midpoint": [
        -2.067209725655601,
        -0.13162602590317055
      ],
      "orientation_vector": [
        0.0,
        1.0
      ],
      "half_bracket_size": 1.7320502221610763,
      "bond": [
        0,
        2
      ],
      "fragment": "F1",
      "backbone": true,
      "suspended_anchor_atom": null,
      "suspended_reason": null,
      "source_label": "F1/fragments[0]",
      "marker_id": "0",
      "side": "left",
      "connection_group": "<1",
      "marker_type_index": 3
    },
    {
      "id": 1,
      "bracket_kind": "backbone",
      "pairing_id": "F1/fragments[0]",
      "group_id": ">1:4",
      "ru_midpoint": [
        0.04736059346313315,
        -0.43717858804474785
      ],
      "bond_midpoint": [
        1.9327895983736942,
        -0.3816260259031699
      ],
      "orientation_vector": [
        0.0,
        1.0
      ],
      "half_bracket_size": 1.7320502221610763,
      "bond": [
        1,
        7
      ],
      "fragment": "F1",
      "backbone": true,
      "suspended_anchor_atom": null,
      "suspended_reason": null,
      "source_label": "F1/fragments[0]",
      "marker_id": "10",
      "side": "right",
      "connection_group": ">1",
      "marker_type_index": 4
    }
  ]
}
