
     RDKit          2D

  0  0  0  0  0  0  0  0  0  0999 V3000
M  V30 BEGIN CTAB
M  V30 COUNTS 7 6 1 0 0
M  V30 BEGIN ATOM
M  V30 1 H -1.732035 0.051406 0.000000 0
M  V30 2 H 1.731707 0.051406 0.000000 0
M  V30 3 C -0.866095 -0.448606 0.000000 0
M  V30 4 C -0.866095 -1.448531 0.000000 0
M  V30 5 C -0.000156 0.051406 0.000000 0
M  V30 6 O -0.000154 1.051406 0.000000 0
M  V30 7 O 0.865776 -0.448606 0.000000 0
M  V30 END ATOM
M  V30 BEGIN BOND
M  V30 1 1 3 4
M  V30 2 1 3 5
M  V30 3 2 5 6
M  V30 4 1 5 7
M  V30 5 1 1 3
M  V30 6 1 2 7
M  V30 END BOND
M  V30 BEGIN SGROUP
M  V30 1 SRU 0 ATOMS=(4 1 2 3 7) CBONDS=(2 5 6) -
M  V30 BRKXYZ=(9 -1.2991 0.3014 0 -1.2991 -0.6986 0 0 0 0) BRKXYZ=(9 1.2987 0.-
M  V30 3014 0 1.2987 -0.6986 0 0 0 0)
M  V30 END SGROUP
M  V30 END CTAB
M  END
>  <BIGSMILES_BRACKET_RECORDS_JSON>
{
  "records": [
    {
      "id": 0,
      "bracket_kind": "backbone",
      "pairing_id": "F1/fragments[0]",
      "group_id": "<1:3",
      "ru_midpoint": [
        -0.00016909551540300605,
        -0.14861572433091952
      ],
      "bond_midpoint": [
        -1.2990652307713115,
        -0.1985999999999999
      ],
      "orientation_vector": [
        0.0,
        1.0
      ],
      "half_bracket_size": 0.5000123282855897,
      "bond": [
        0,
        2
      ],
      "fragment": "F1",
      "backbone": true,
      "suspended_anchor_atom": null,
      "suspended_reason": null,
      "source_label": "F1/fragments[0]",
      "marker_id": "0",
      "side": "left",
      "connection_group": "<1",
      "marker_type_index": 3
    },
    {
      "id": 1,
      "bracket_kind": "backbone",
      "pairing_id": "F1/fragments[0]",
      "group_id": ">1:4",
      "ru_midpoint": [
        -0.00016909551540300605,
        -0.14861572433091952
      ],
      "bond_midpoint": [
        1.2987413409180142,
        -0.1986
      ],
      "orientation_vector": [
        0.0,
        1.0
      ],
      "half_bracket_size": 0.5000123282855897,
      "bond": [
        1,
        6
      ],
      "fragment": "F1",
      "backbone": true,
      "suspended_anchor_atom": null,
      "suspended_reason": null,
      "source_label": "F1/fragments[0]",
      "marker_id": "6",
      "side": "right",
      "connection_group": ">1",
      "marker_type_index": 4
    }
  ]
}
