
     RDKit          2D

  0  0  0  0  0  0  0  0  0  0999 V3000
M  V30 BEGIN CTAB
M  V30 COUNTS 26 27 1 0 0
M  V30 BEGIN ATOM
M  V30 1 H -4.866106 -0.681208 0.000000 0
M  V30 2 H 4.133834 -1.181208 0.000000 0
M  V30 3 C -3.866106 -0.681208 0.000000 0
M  V30 4 O -3.866106 0.318787 0.000000 0
M  V30 5 O -3.366112 0.184808 0.000000 0
M  V30 6 C -2.366124 0.184808 0.000000 0
M  V30 7 C -1.866127 1.050827 0.000000 0
M  V30 8 O -0.866166 1.050893 0.000000 0
M  V30 9 C -1.866129 -0.681208 0.000000 0
M  V30 10 C -2.366124 -1.547223 0.000000 0
M  V30 11 C -3.366112 -1.547223 0.000000 0
M  V30 12 O -3.866109 -2.413243 0.000000 0
M  V30 13 O -1.866148 -2.413206 0.000000 0
M  V30 14 O -0.866129 -0.681208 0.000000 0
M  V30 15 C 0.133871 -0.681208 0.000000 0
M  V30 16 O 0.133871 0.318803 0.000000 0
M  V30 17 C 0.633861 0.184802 0.000000 0
M  V30 18 O 0.133887 1.050783 0.000000 0
M  V30 19 C 1.633843 0.184802 0.000000 0
M  V30 20 O 2.133902 1.050929 0.000000 0
M  V30 21 C 2.133834 -0.681208 0.000000 0
M  V30 22 C 1.633843 -1.547217 0.000000 0
M  V30 23 O 0.633861 -1.547217 0.000000 0
M  V30 24 C 2.133847 -2.413249 0.000000 0
M  V30 25 O 3.133847 -2.413129 0.000000 0
M  V30 26 O 3.133834 -0.681208 0.000000 0
M  V30 END ATOM
M  V30 BEGIN BOND
M  V30 1 1 3 4
M  V30 2 1 3 5
M  V30 3 1 5 6
M  V30 4 1 6 7
M  V30 5 1 7 8
M  V30 6 1 6 9
M  V30 7 1 9 10
M  V30 8 1 10 11
M  V30 9 1 11 12 CFG=3
M  V30 10 1 10 13
M  V30 11 1 9 14 CFG=3
M  V30 12 1 14 15
M  V30 13 1 15 16 CFG=3
M  V30 14 1 15 17
M  V30 15 1 17 18 CFG=1
M  V30 16 1 17 19
M  V30 17 1 19 20
M  V30 18 1 19 21
M  V30 19 1 21 22
M  V30 20 1 22 23
M  V30 21 1 22 24
M  V30 22 1 24 25
M  V30 23 1 21 26 CFG=1
M  V30 24 1 11 3
M  V30 25 1 23 15
M  V30 26 1 3 1 CFG=3
M  V30 27 1 2 26
M  V30 END BOND
M  V30 BEGIN SGROUP
M  V30 1 SRU 0 ATOMS=(4 1 2 3 26) CBONDS=(2 26 27) -
M  V30 BRKXYZ=(9 -4.3661 1.0508 0 -4.3661 -2.4132 0 0 0 0) BRKXYZ=(9 3.6338 0.-
M  V30 8008 0 3.6338 -2.6632 0 0 0 0)
M  V30 END SGROUP
M  V30 END CTAB
M  END
>  <BIGSMILES_BRACKET_RECORDS_JSON>
{
  "records": [
    {
      "id": 0,
      "bracket_kind": "backbone",
      "pairing_id": "F1/fragments[0]",
      "group_id": "<1:3",
      "ru_midpoint": [
        -0.4950307144548656,
        -0.6499632148763146
      ],
      "bond_midpoint": [
        -4.366106386765351,
        -0.6812077450226042
      ],
      "orientation_vector": [
        0.0,
        1.0
      ],
      "half_bracket_size": 1.7320309800904248,
      "bond": [
        0,
        2
      ],
      "fragment": "F1",
      "backbone": true,
      "suspended_anchor_atom": null,
      "suspended_reason": null,
      "source_label": "F1/fragments[0]",
      "marker_id": "0",
      "side": "left",
      "connection_group": "<1",
      "marker_type_index": 3
    },
    {
      "id": 1,
      "bracket_kind": "backbone",
      "pairing_id": "F1/fragments[0]",
      "group_id": ">1:4",
      "ru_midpoint": [
        -0.4950307144548656,
        -0.6499632148763146
      ],
      "bond_midpoint": [
        3.6338336996529854,
        -0.9312077450226068
      ],
      "orientation_vector": [
        0.0,
        1.0
      ],
      "half_bracket_size": 1.7320309800904248,
      "bond": [
        1,
        25
      ],
      "fragment": "F1",
      "backbone": true,
      "suspended_anchor_atom": null,
      "suspended_reason": null,
      "source_label": "F1/fragments[0]",
      "marker_id": "25",
      "side": "right",
      "connection_group": ">1",
      "marker_type_index": 4
    }
  ]
}
