
     RDKit          2D

  0  0  0  0  0  0  0  0  0  0999 V3000
M  V30 BEGIN CTAB
M  V30 COUNTS 20 20 4 0 0
M  V30 BEGIN ATOM
M  V30 1 H -3.031318 -0.448570 0.000000 0
M  V30 2 H 3.030826 0.051404 0.000000 0
M  V30 3 C -2.165261 0.051404 0.000000 0
M  V30 4 C -1.299204 -0.448570 0.000000 0
M  V30 5 C -1.299204 -1.448572 0.000000 0
M  V30 6 N -1.299204 -2.448574 0.000000 0
M  V30 7 C -0.433163 0.051404 0.000000 0
M  V30 8 C 0.432796 -0.448604 0.000000 0
M  V30 9 C 0.432796 -1.448606 0.000000 0
M  V30 10 C -0.433406 -1.948539 0.000000 0
M  V30 11 C -0.433206 -2.948541 0.000000 0
M  V30 12 C 0.432596 -3.448610 0.000000 0
M  V30 13 C 1.298798 -2.948677 0.000000 0
M  V30 14 C 1.298598 -1.948675 0.000000 0
M  V30 15 C 1.298818 0.051404 0.000000 0
M  V30 16 C 2.164822 -0.448497 0.000000 0
M  V30 17 C 2.164822 -1.448421 0.000000 0
M  V30 18 O 3.030714 -1.948515 0.000000 0
M  V30 19 C 3.030714 -2.948440 0.000000 0
M  V30 20 O 1.298756 -1.948352 0.000000 0
M  V30 END ATOM
M  V30 BEGIN BOND
M  V30 1 1 3 4
M  V30 2 1 4 5
M  V30 3 3 5 6
M  V30 4 1 7 8
M  V30 5 1 8 9
M  V30 6 2 9 10
M  V30 7 1 10 11
M  V30 8 2 11 12
M  V30 9 1 12 13
M  V30 10 2 13 14
M  V30 11 1 14 9
M  V30 12 1 4 7
M  V30 13 1 15 16
M  V30 14 1 16 17
M  V30 15 1 17 18
M  V30 16 1 18 19
M  V30 17 2 17 20
M  V30 18 1 8 15
M  V30 19 1 1 3
M  V30 20 1 2 16
M  V30 END BOND
M  V30 BEGIN SGROUP
M  V30 1 SRU 0 ATOMS=(4 1 3 4 7) CBONDS=(2 12 19) -
M  V30 BRKXYZ=(9 -2.5983 0.3014 0 -2.5983 -0.6986 0 0 0 0) BRKXYZ=(9 -0.8662 0-
M  V30 .3014 0 -0.8662 -0.6986 0 0 0 0)
M  V30 2 SRU 0 ATOMS=(4 4 7 8 15) CBONDS=(2 12 18) -
M  V30 BRKXYZ=(9 -0.8662 0.3014 0 -0.8662 -0.6986 0 0 0 0) BRKXYZ=(9 0.8658 0.-
M  V30 3014 0 0.8658 -0.6986 0 0 0 0)
M  V30 3 SRU 0 ATOMS=(4 2 8 15 16) CBONDS=(2 18 20) -
M  V30 BRKXYZ=(9 0.8658 0.3014 0 0.8658 -0.6986 0 0 0 0) BRKXYZ=(9 2.5978 0.30-
M  V30 15 0 2.5978 -0.6986 0 0 0 0)
M  V30 4 SRU 0 ATOMS=(4 1 2 3 16) CBONDS=(2 19 20) -
M  V30 BRKXYZ=(9 -2.5983 3.3014 0 -2.5983 -3.6986 0 0 0 0) BRKXYZ=(9 2.5978 3.-
M  V30 3015 0 2.5978 -3.6986 0 0 0 0)
M  V30 END SGROUP
M  V30 END CTAB
M  END
>  <BIGSMILES_BRACKET_RECORDS_JSON>
{
  "records": [
    {
      "id": 0,
      "bracket_kind": "backbone",
      "pairing_id": "F1/fragments[0]",
      "group_id": "$a:2",
      "ru_midpoint": [
        -1.732227608322747,
        -0.19858350012955933
      ],
      "bond_midpoint": [
        -2.598289643980178,
        -0.19858300015800023
      ],
      "orientation_vector": [
        0.0,
        1.0
      ],
      "half_bracket_size": 0.5000070589092322,
      "bond": [
        0,
        2
      ],
      "fragment": "F1",
      "backbone": true,
      "suspended_anchor_atom": null,
      "suspended_reason": null,
      "source_label": "F1/fragments[0]",
      "marker_id": "0",
      "side": "left",
      "connection_group": "$a",
      "marker_type_index": 2
    },
    {
      "id": 1,
      "bracket_kind": "backbone",
      "pairing_id": "F1/fragments[0]",
      "group_id": "$a:2",
      "ru_midpoint": [
        -1.732227608322747,
        -0.19858350012955933
      ],
      "bond_midpoint": [
        -0.8661832731136301,
        -0.19858300015800046
      ],
      "orientation_vector": [
        0.0,
        1.0
      ],
      "half_bracket_size": 0.5000070589092322,
      "bond": [
        3,
        6
      ],
      "fragment": "F1",
      "backbone": true,
      "suspended_anchor_atom": null,
      "suspended_reason": null,
      "source_label": "F1/fragments[0]",
      "marker_id": "5",
      "side": "right",
      "connection_group": "$a",
      "marker_type_index": 2
    },
    {
      "id": 2,
      "bracket_kind": "backbone",
      "pairing_id": "F1/fragments[1]",
      "group_id": "$a:2",
      "ru_midpoint": [
        -0.00020870759418656348,
        -0.1985999999999999
      ],
      "bond_midpoint": [
        -0.8661832731136301,
        -0.19858300015800046
      ],
      "orientation_vector": [
        0.0,
        1.0
      ],
      "half_bracket_size": 0.5000070589092322,
      "bond": [
        3,
        6
      ],
      "fragment": "F1",
      "backbone": true,
      "suspended_anchor_atom": null,
      "suspended_reason": null,
      "source_label": "F1/fragments[1]",
      "marker_id": "0",
      "side": "left",
      "connection_group": "$a",
      "marker_type_index": 2
    },
    {
      "id": 3,
      "bracket_kind": "backbone",
      "pairing_id": "F1/fragments[1]",
      "group_id": "$a:2",
      "ru_midpoint": [
        -0.00020870759418656348,
        -0.1985999999999999
      ],
      "bond_midpoint": [
        0.8658069802626596,
        -0.1986000000000001
      ],
      "orientation_vector": [
        0.0,
        1.0
      ],
      "half_bracket_size": 0.5000070589092322,
      "bond": [
        7,
        14
      ],
      "fragment": "F1",
      "backbone": true,
      "suspended_anchor_atom": null,
      "suspended_reason": null,
      "source_label": "F1/fragments[1]",
      "marker_id": "9",
      "side": "right",
      "connection_group": "$a",
      "marker_type_index": 2
    },
    {
      "id": 4,
      "bracket_kind": "backbone",
      "pairing_id": "F1/fragments[2]",
      "group_id": "$a:2",
      "ru_midpoint": [
        1.731802238365475,
        -0.1985464705690779
      ],
      "bond_midpoint": [
        0.8658069802626596,
        -0.1986000000000001
      ],
      "orientation_vector": [
        0.0,
        1.0
      ],
      "half_bracket_size": 0.5000070589092322,
      "bond": [
        7,
        14
      ],
      "fragment": "F1",
      "backbone": true,
      "suspended_anchor_atom": null,
      "suspended_reason": null,
      "source_label": "F1/fragments[2]",
      "marker_id": "0",
      "side": "left",
      "connection_group": "$a",
      "marker_type_index": 2
    },
    {
      "id": 5,
      "bracket_kind": "backbone",
      "pairing_id": "F1/fragments[2]",
      "group_id": "$a:2",
      "ru_midpoint": [
        1.731802238365475,
        -0.1985464705690779
      ],
      "bond_midpoint": [
        2.597824183085663,
        -0.19854655055306503
      ],
      "orientation_vector": [
        0.0,
        1.0
      ],
      "half_bracket_size": 0.5000070589092322,
      "bond": [
        1,
        15
      ],
      "fragment": "F1",
      "backbone": true,
      "suspended_anchor_atom": null,
      "suspended_reason": null,
      "source_label": "F1/fragments[2]",
      "marker_id": "7",
      "side": "right",
      "connection_group": "$a",
      "marker_type_index": 2
    },
    {
      "id": 6,
      "bracket_kind": "backbone",
      "pairing_id": "F1/connected",
      "group_id": "$overall",
      "ru_midpoint": [
        -0.00024605728407745,
        -0.19857855770483837
      ],
      "bond_midpoint": [
        -2.598289643980178,
        -0.19858300015800023
      ],
      "orientation_vector": [
        0.0,
        1.0
      ],
      "half_bracket_size": 3.500013458902432,
      "bond": [
        0,
        2
      ],
      "fragment": "F1",
      "backbone": true,
      "suspended_anchor_atom": null,
      "suspended_reason": null,
      "source_label": "F1/connected",
      "marker_id": "connected-overall-left",
      "side": "left",
      "connection_group": "$overall",
      "marker_type_index": null
    },
    {
      "id": 7,
      "bracket_kind": "backbone",
      "pairing_id": "F1/connected",
      "group_id": "$overall",
      "ru_midpoint": [
        -0.00024605728407745,
        -0.19857855770483837
      ],
      "bond_midpoint": [
        2.597824183085663,
        -0.19854655055306503
      ],
      "orientation_vector": [
        0.0,
        1.0
      ],
      "half_bracket_size": 3.500013458902432,
      "bond": [
        1,
        15
      ],
      "fragment": "F1",
      "backbone": true,
      "suspended_anchor_atom": null,
      "suspended_reason": null,
      "source_label": "F1/connected",
      "marker_id": "connected-overall-right",
      "side": "right",
      "connection_group": "$overall",
      "marker_type_index": null
    }
  ]
}
