
     RDKit          2D

  0  0  0  0  0  0  0  0  0  0999 V3000
M  V30 BEGIN CTAB
M  V30 COUNTS 27 28 1 0 0
M  V30 BEGIN ATOM
M  V30 1 H -5.000446 0.118783 0.000000 0
M  V30 2 H 4.999594 -0.881217 0.000000 0
M  V30 3 O -4.000446 -0.381217 0.000000 0
M  V30 4 C -3.000446 -0.381217 0.000000 0 RAD=2 VAL=3
M  V30 5 C -2.500441 0.484817 0.000000 0 RAD=2 VAL=3
M  V30 6 O -3.000415 1.350797 0.000000 0
M  V30 7 C -1.500431 0.484817 0.000000 0 RAD=2 VAL=3
M  V30 8 O -1.000400 1.350896 0.000000 0
M  V30 9 C -1.000426 -0.381217 0.000000 0 RAD=2 VAL=3
M  V30 10 O -1.500431 -1.247251 0.000000 0
M  V30 11 C -2.500441 -1.247251 0.000000 0 RAD=2 VAL=3
M  V30 12 C -3.000364 -2.113143 0.000000 0
M  V30 13 O -2.500293 -2.979128 0.000000 0 CHG=-1
M  V30 14 O -0.000426 -0.381217 0.000000 0
M  V30 15 C 0.999574 -0.381217 0.000000 0 RAD=2 VAL=3
M  V30 16 C 1.499579 0.484817 0.000000 0 RAD=2 VAL=3
M  V30 17 O 0.999634 1.350748 0.000000 0
M  V30 18 C 2.499589 0.484817 0.000000 0 RAD=2 VAL=3
M  V30 19 O 2.999512 1.350709 0.000000 0
M  V30 20 C 2.999594 -0.381217 0.000000 0 RAD=2 VAL=3
M  V30 21 O 2.499589 -1.247251 0.000000 0
M  V30 22 C 1.499579 -1.247251 0.000000 0 RAD=2 VAL=3
M  V30 23 C 0.999548 -2.113330 0.000000 0
M  V30 24 O -0.000476 -2.113173 0.000000 0 CHG=-1
M  V30 25 Na -0.500457 -2.979246 0.000000 0 CHG=1 RAD=3 VAL=2
M  V30 26 Na -1.500481 -2.979089 0.000000 0 CHG=1 RAD=2 VAL=1
M  V30 27 O 3.999594 -0.381217 0.000000 0
M  V30 END ATOM
M  V30 BEGIN BOND
M  V30 1 1 4 3 CFG=3
M  V30 2 1 4 5
M  V30 3 1 5 6 CFG=1
M  V30 4 1 5 7
M  V30 5 1 7 8 CFG=1
M  V30 6 1 7 9
M  V30 7 1 9 10
M  V30 8 1 10 11
M  V30 9 1 11 12 CFG=1
M  V30 10 1 12 13
M  V30 11 1 9 14 CFG=3
M  V30 12 1 15 14 CFG=3
M  V30 13 1 15 16
M  V30 14 1 16 17 CFG=1
M  V30 15 1 16 18
M  V30 16 1 18 19 CFG=1
M  V30 17 1 18 20
M  V30 18 1 20 21
M  V30 19 1 21 22
M  V30 20 1 22 23 CFG=1
M  V30 21 1 23 24
M  V30 22 9 24 25
M  V30 23 1 25 26
M  V30 24 1 20 27 CFG=3
M  V30 25 1 11 4
M  V30 26 1 22 15
M  V30 27 1 1 3
M  V30 28 1 2 27
M  V30 END BOND
M  V30 BEGIN SGROUP
M  V30 1 SRU 0 ATOMS=(4 1 2 3 27) CBONDS=(2 27 28) -
M  V30 BRKXYZ=(9 -4.5004 1.6009 0 -4.5004 -1.8633 0 0 0 0) BRKXYZ=(9 4.4996 1.-
M  V30 1009 0 4.4996 -2.3633 0 0 0 0)
M  V30 END SGROUP
M  V30 END CTAB
M  END
>  <BIGSMILES_BRACKET_RECORDS_JSON>
{
  "records": [
    {
      "id": 0,
      "bracket_kind": "backbone",
      "pairing_id": "F1/fragments[0]",
      "group_id": "<1:3",
      "ru_midpoint": [
        -0.0003993383658054128,
        -0.3812631774322184
      ],
      "bond_midpoint": [
        -4.500446120432958,
        -0.13121705977010037
      ],
      "orientation_vector": [
        0.0,
        1.0
      ],
      "half_bracket_size": 1.7320682390804025,
      "bond": [
        0,
        2
      ],
      "fragment": "F1",
      "backbone": true,
      "suspended_anchor_atom": null,
      "suspended_reason": null,
      "source_label": "F1/fragments[0]",
      "marker_id": "0",
      "side": "left",
      "connection_group": "<1",
      "marker_type_index": 3
    },
    {
      "id": 1,
      "bracket_kind": "backbone",
      "pairing_id": "F1/fragments[0]",
      "group_id": ">1:4",
      "ru_midpoint": [
        -0.0003993383658054128,
        -0.3812631774322184
      ],
      "bond_midpoint": [
        4.499594135918526,
        -0.6312170597701008
      ],
      "orientation_vector": [
        0.0,
        1.0
      ],
      "half_bracket_size": 1.7320682390804025,
      "bond": [
        1,
        26
      ],
      "fragment": "F1",
      "backbone": true,
      "suspended_anchor_atom": null,
      "suspended_reason": null,
      "source_label": "F1/fragments[0]",
      "marker_id": "26",
      "side": "right",
      "connection_group": ">1",
      "marker_type_index": 4
    }
  ]
}
