
     RDKit          2D

  0  0  0  0  0  0  0  0  0  0999 V3000
M  V30 BEGIN CTAB
M  V30 COUNTS 9 9 1 0 0
M  V30 BEGIN ATOM
M  V30 1 H -2.711398 -0.397018 0.000000 0 VAL=2
M  V30 2 H 2.710868 -0.397018 0.000000 0 VAL=2
M  V30 3 C -1.760341 -0.088001 0.000000 0
M  V30 4 C -0.809285 -0.397018 0.000000 0
M  V30 5 C -0.500266 -1.348078 0.000000 0
M  V30 6 C 0.499737 -1.348078 0.000000 0
M  V30 7 C 0.808755 -0.397018 0.000000 0
M  V30 8 C -0.000265 0.190769 0.000000 0
M  V30 9 C 1.759812 -0.088001 0.000000 0
M  V30 END ATOM
M  V30 BEGIN BOND
M  V30 1 1 3 4
M  V30 2 1 4 5
M  V30 3 1 5 6
M  V30 4 1 6 7
M  V30 5 1 7 8
M  V30 6 1 7 9
M  V30 7 1 8 4
M  V30 8 2 1 3
M  V30 9 2 2 9
M  V30 END BOND
M  V30 BEGIN SGROUP
M  V30 1 SRU 0 ATOMS=(4 1 2 3 9) CBONDS=(2 8 9) -
M  V30 BRKXYZ=(9 -2.2359 1.2963 0 -2.2359 -1.7814 0 0 0 0) BRKXYZ=(9 2.2353 1.-
M  V30 2963 0 2.2353 -1.7814 0 0 0 0)
M  V30 END SGROUP
M  V30 END CTAB
M  END
>  <BIGSMILES_BRACKET_RECORDS_JSON>
{
  "records": [
    {
      "id": 0,
      "bracket_kind": "backbone",
      "pairing_id": "F1/fragments[0]",
      "group_id": "$a:2",
      "ru_midpoint": [
        -0.00025006713033215444,
        -0.8258268770102255
      ],
      "bond_midpoint": [
        -2.235869290592642,
        -0.2425096271391523
      ],
      "orientation_vector": [
        0.0,
        1.0
      ],
      "half_bracket_size": 1.5388474522677276,
      "bond": [
        0,
        2
      ],
      "fragment": "F1",
      "backbone": true,
      "suspended_anchor_atom": null,
      "suspended_reason": null,
      "source_label": "F1/fragments[0]",
      "marker_id": "0",
      "side": "left",
      "connection_group": "$a",
      "marker_type_index": 2
    },
    {
      "id": 1,
      "bracket_kind": "backbone",
      "pairing_id": "F1/fragments[0]",
      "group_id": "$a:2",
      "ru_midpoint": [
        -0.00025006713033215444,
        -0.8258268770102255
      ],
      "bond_midpoint": [
        2.2353402232176345,
        -0.24250962713915225
      ],
      "orientation_vector": [
        0.0,
        1.0
      ],
      "half_bracket_size": 1.5388474522677276,
      "bond": [
        1,
        8
      ],
      "fragment": "F1",
      "backbone": true,
      "suspended_anchor_atom": null,
      "suspended_reason": null,
      "source_label": "F1/fragments[0]",
      "marker_id": "8",
      "side": "right",
      "connection_group": "$a",
      "marker_type_index": 2
    }
  ]
}
