
     RDKit          2D

  0  0  0  0  0  0  0  0  0  0999 V3000
M  V30 BEGIN CTAB
M  V30 COUNTS 11 11 1 0 0
M  V30 BEGIN ATOM
M  V30 1 H -3.000141 0.484396 0.000000 0
M  V30 2 H 2.999801 -0.515604 0.000000 0
M  V30 3 C -2.000141 -0.015604 0.000000 0
M  V30 4 C -1.000141 -0.015604 0.000000 0
M  V30 5 C -0.500155 -0.881604 0.000000 0
M  V30 6 C 0.499815 -0.881604 0.000000 0
M  V30 7 Cl 0.999802 -1.747606 0.000000 0
M  V30 8 C 0.999801 -0.015604 0.000000 0
M  V30 9 C 0.499815 0.850397 0.000000 0
M  V30 10 C -0.500155 0.850397 0.000000 0
M  V30 11 C 1.999801 -0.015604 0.000000 0
M  V30 END ATOM
M  V30 BEGIN BOND
M  V30 1 1 3 4
M  V30 2 2 4 5
M  V30 3 1 5 6
M  V30 4 1 6 7
M  V30 5 2 6 8
M  V30 6 1 8 9
M  V30 7 2 9 10
M  V30 8 1 8 11
M  V30 9 1 10 4
M  V30 10 1 1 3
M  V30 11 1 2 11
M  V30 END BOND
M  V30 BEGIN SGROUP
M  V30 1 SRU 0 ATOMS=(4 1 2 3 11) CBONDS=(2 10 11) -
M  V30 BRKXYZ=(9 -2.5001 1.9664 0 -2.5001 -1.4976 0 0 0 0) BRKXYZ=(9 2.4998 1.-
M  V30 4664 0 2.4998 -1.9976 0 0 0 0)
M  V30 END SGROUP
M  V30 END CTAB
M  END
>  <BIGSMILES_BRACKET_RECORDS_JSON>
{
  "records": [
    {
      "id": 0,
      "bracket_kind": "backbone",
      "pairing_id": "F1/fragments[0]",
      "group_id": "$a:2",
      "ru_midpoint": [
        -0.00017587782093020365,
        -0.015600119783742428
      ],
      "bond_midpoint": [
        -2.500140678347313,
        0.23439648014866163
      ],
      "orientation_vector": [
        0.0,
        1.0
      ],
      "half_bracket_size": 1.732000040494961,
      "bond": [
        0,
        2
      ],
      "fragment": "F1",
      "backbone": true,
      "suspended_anchor_atom": null,
      "suspended_reason": null,
      "source_label": "F1/fragments[0]",
      "marker_id": "0",
      "side": "left",
      "connection_group": "$a",
      "marker_type_index": 2
    },
    {
      "id": 1,
      "bracket_kind": "backbone",
      "pairing_id": "F1/fragments[0]",
      "group_id": "$a:2",
      "ru_midpoint": [
        -0.00017587782093020365,
        -0.015600119783742428
      ],
      "bond_midpoint": [
        2.4998007008851033,
        -0.2656035198513383
      ],
      "orientation_vector": [
        0.0,
        1.0
      ],
      "half_bracket_size": 1.732000040494961,
      "bond": [
        1,
        10
      ],
      "fragment": "F1",
      "backbone": true,
      "suspended_anchor_atom": null,
      "suspended_reason": null,
      "source_label": "F1/fragments[0]",
      "marker_id": "10",
      "side": "right",
      "connection_group": "$a",
      "marker_type_index": 2
    }
  ]
}
