
     RDKit          2D

  0  0  0  0  0  0  0  0  0  0999 V3000
M  V30 BEGIN CTAB
M  V30 COUNTS 22 23 2 0 0
M  V30 BEGIN ATOM
M  V30 1 H 1.157916 0.659951 0.000000 0 VAL=2
M  V30 2 H 11.100335 0.659951 0.000000 0 VAL=2
M  V30 3 C 2.108972 0.968968 0.000000 0
M  V30 4 C 3.060029 0.659951 0.000000 0
M  V30 5 C 3.369047 -0.291109 0.000000 0
M  V30 6 C 4.369051 -0.291109 0.000000 0
M  V30 7 C 4.678069 0.659951 0.000000 0
M  V30 8 C 3.869049 1.247739 0.000000 0
M  V30 9 C 5.629125 0.968968 0.000000 0
M  V30 10 C 6.629125 0.968968 0.000000 0
M  V30 11 C 7.580182 0.659951 0.000000 0
M  V30 12 C 7.889200 -0.291109 0.000000 0
M  V30 13 C 7.301424 -1.100113 0.000000 0
M  V30 14 O 6.306900 -0.995598 0.000000 0
M  V30 15 O 7.708159 -2.013425 0.000000 0
M  V30 16 C 8.889204 -0.291109 0.000000 0
M  V30 17 C 9.477022 -1.100171 0.000000 0
M  V30 18 O 9.070362 -2.013609 0.000000 0
M  V30 19 O 10.471550 -0.995712 0.000000 0
M  V30 20 C 9.198222 0.659951 0.000000 0
M  V30 21 C 8.389202 1.247739 0.000000 0
M  V30 22 C 10.149278 0.968968 0.000000 0
M  V30 END ATOM
M  V30 BEGIN BOND
M  V30 1 1 3 4
M  V30 2 1 4 5
M  V30 3 1 5 6
M  V30 4 1 6 7
M  V30 5 1 7 8
M  V30 6 1 7 9
M  V30 7 1 8 4
M  V30 8 2 1 3
M  V30 9 1 10 11
M  V30 10 1 11 12
M  V30 11 1 12 13
M  V30 12 2 13 14
M  V30 13 1 13 15
M  V30 14 1 12 16
M  V30 15 1 16 17
M  V30 16 2 17 18
M  V30 17 1 17 19
M  V30 18 1 16 20
M  V30 19 1 20 21
M  V30 20 1 20 22
M  V30 21 1 21 11
M  V30 22 2 9 10 CFG=2
M  V30 23 2 2 22
M  V30 END BOND
M  V30 BEGIN SGROUP
M  V30 1 SRU 0 ATOMS=(4 2 9 10 22) CBONDS=(2 22 23) -
M  V30 BRKXYZ=(9 6.1291 2.5078 0 6.1291 -0.5699 0 0 0 0) BRKXYZ=(9 10.6248 2.3-
M  V30 533 0 10.6248 -0.7244 0 0 0 0)
M  V30 2 SRU 0 ATOMS=(4 1 3 9 10) CBONDS=(2 8 22) -
M  V30 BRKXYZ=(9 1.6334 2.3533 0 1.6334 -0.7244 0 0 0 0) BRKXYZ=(9 6.1291 2.50-
M  V30 78 0 6.1291 -0.5699 0 0 0 0)
M  V30 END SGROUP
M  V30 END CTAB
M  END
>  <BIGSMILES_BRACKET_RECORDS_JSON>
{
  "records": [
    {
      "id": 0,
      "bracket_kind": "backbone",
      "pairing_id": "F2/fragments[0]",
      "group_id": "$a:2",
      "ru_midpoint": [
        8.431718731108163,
        0.6356121619520692
      ],
      "bond_midpoint": [
        6.129125294594317,
        0.9689682196336658
      ],
      "orientation_vector": [
        0.0,
        1.0
      ],
      "half_bracket_size": 1.5388474522677278,
      "bond": [
        8,
        9
      ],
      "fragment": "F2",
      "backbone": true,
      "suspended_anchor_atom": null,
      "suspended_reason": null,
      "source_label": "F2/fragments[0]",
      "marker_id": "0",
      "side": "left",
      "connection_group": "$a",
      "marker_type_index": 2
    },
    {
      "id": 1,
      "bracket_kind": "backbone",
      "pairing_id": "F2/fragments[0]",
      "group_id": "$a:2",
      "ru_midpoint": [
        8.431718731108163,
        0.6356121619520692
      ],
      "bond_midpoint": [
        10.624806550257018,
        0.8144597224461938
      ],
      "orientation_vector": [
        0.0,
        1.0
      ],
      "half_bracket_size": 1.5388474522677278,
      "bond": [
        1,
        21
      ],
      "fragment": "F2",
      "backbone": true,
      "suspended_anchor_atom": null,
      "suspended_reason": null,
      "source_label": "F2/fragments[0]",
      "marker_id": "14",
      "side": "right",
      "connection_group": "$a",
      "marker_type_index": 2
    },
    {
      "id": 2,
      "bracket_kind": "backbone",
      "pairing_id": "F1/fragments[0]",
      "group_id": "$a:2",
      "ru_midpoint": [
        3.8265477061385704,
        0.1356509697625924
      ],
      "bond_midpoint": [
        1.6334440389316178,
        0.814459722446192
      ],
      "orientation_vector": [
        0.0,
        1.0
      ],
      "half_bracket_size": 1.5388474522677276,
      "bond": [
        0,
        2
      ],
      "fragment": "F1",
      "backbone": true,
      "suspended_anchor_atom": null,
      "suspended_reason": null,
      "source_label": "F1/fragments[0]",
      "marker_id": "0",
      "side": "left",
      "connection_group": "$a",
      "marker_type_index": 2
    },
    {
      "id": 3,
      "bracket_kind": "backbone",
      "pairing_id": "F1/fragments[0]",
      "group_id": "$a:2",
      "ru_midpoint": [
        3.8265477061385704,
        0.1356509697625924
      ],
      "bond_midpoint": [
        6.129125294594317,
        0.9689682196336658
      ],
      "orientation_vector": [
        0.0,
        1.0
      ],
      "half_bracket_size": 1.5388474522677276,
      "bond": [
        8,
        9
      ],
      "fragment": "F1",
      "backbone": true,
      "suspended_anchor_atom": null,
      "suspended_reason": null,
      "source_label": "F1/fragments[0]",
      "marker_id": "8",
      "side": "right",
      "connection_group": "$a",
      "marker_type_index": 2
    }
  ]
}
