
     RDKit          2D

  0  0  0  0  0  0  0  0  0  0999 V3000
M  V30 BEGIN CTAB
M  V30 COUNTS 35 40 1 0 0
M  V30 BEGIN ATOM
M  V30 1 C 2.919563 -1.550916 0.000000 0
M  V30 2 C 3.419563 -2.416941 0.000000 0
M  V30 3 C 4.419616 -2.416941 0.000000 0
M  V30 4 C 4.919643 -3.283013 0.000000 0
M  V30 5 C 4.419616 -4.149085 0.000000 0
M  V30 6 C 3.419563 -4.149085 0.000000 0
M  V30 7 C 2.919536 -3.283013 0.000000 0
M  V30 8 O 4.919616 -1.550916 0.000000 0
M  V30 9 C 5.785680 -2.050737 0.000000 0
M  V30 10 C 6.651721 -1.550765 0.000000 0
M  V30 11 C 7.151824 -0.684626 0.000000 0
M  V30 12 O 7.651871 -1.550797 0.000000 0
M  V30 13 C -1.044620 -2.416962 0.000000 0
M  V30 14 C -0.544626 -3.282977 0.000000 0
M  V30 15 C -1.044620 -4.148991 0.000000 0
M  V30 16 C -2.044607 -4.148991 0.000000 0
M  V30 17 C -2.544601 -3.282977 0.000000 0
M  V30 18 C -2.044607 -2.416962 0.000000 0
M  V30 19 O -2.544607 -1.550937 0.000000 0
M  V30 20 C -3.410586 -2.050910 0.000000 0
M  V30 21 C -4.276611 -1.550910 0.000000 0
M  V30 22 C -5.276598 -1.550910 0.000000 0
M  V30 23 O -4.776605 -0.684896 0.000000 0
M  V30 24 C 2.053500 -2.050937 0.000000 0
M  V30 25 C 2.053500 -3.050962 0.000000 0
M  V30 26 C 1.187453 -3.550974 0.000000 0
M  V30 27 C 0.321406 -3.050962 0.000000 0
M  V30 28 C 0.321406 -2.050937 0.000000 0
M  V30 29 C 1.187453 -1.550924 0.000000 0
M  V30 30 O 1.187453 -0.550991 0.000000 0
M  V30 31 C 2.053385 -0.050942 0.000000 0
M  V30 32 C 2.053270 0.949084 0.000000 0
M  V30 33 C 1.553394 1.814915 0.000000 0
M  V30 34 O 2.553419 1.815030 0.000000 0
M  V30 35 C -0.544620 -1.550937 0.000000 0
M  V30 END ATOM
M  V30 BEGIN BOND
M  V30 1 1 1 2
M  V30 2 2 2 3
M  V30 3 1 3 4
M  V30 4 2 4 5
M  V30 5 1 5 6
M  V30 6 2 6 7
M  V30 7 1 3 8
M  V30 8 1 8 9
M  V30 9 1 9 10
M  V30 10 1 10 11
M  V30 11 1 11 12
M  V30 12 1 7 2
M  V30 13 1 12 10
M  V30 14 2 13 14
M  V30 15 1 14 15
M  V30 16 2 15 16
M  V30 17 1 16 17
M  V30 18 2 17 18
M  V30 19 1 18 19
M  V30 20 1 19 20
M  V30 21 1 20 21
M  V30 22 1 21 22
M  V30 23 1 22 23
M  V30 24 1 18 13
M  V30 25 1 23 21
M  V30 26 2 24 25
M  V30 27 1 25 26
M  V30 28 2 26 27
M  V30 29 1 27 28
M  V30 30 2 28 29
M  V30 31 1 29 30
M  V30 32 1 30 31
M  V30 33 1 31 32
M  V30 34 1 32 33
M  V30 35 1 33 34
M  V30 36 1 28 35
M  V30 37 1 29 24
M  V30 38 1 34 32
M  V30 39 1 13 35
M  V30 40 1 1 24
M  V30 END BOND
M  V30 BEGIN SGROUP
M  V30 1 SRU 0 ATOMS=(4 1 13 24 35) CBONDS=(2 39 40) -
M  V30 BRKXYZ=(9 2.4865 -3.8010 0 2.4865 0.1991 0 0 0 0) BRKXYZ=(9 -0.7946 -3.-
M  V30 9840 0 -0.7946 0.0161 0 0 0 0)
M  V30 END SGROUP
M  V30 END CTAB
M  END
>  <BIGSMILES_BRACKET_RECORDS_JSON>
{
  "records": [
    {
      "id": 0,
      "bracket_kind": "backbone",
      "pairing_id": "F2/fragments[0]",
      "group_id": "<1:3",
      "ru_midpoint": [
        0.8987641354221401,
        -2.2731740290471105
      ],
      "bond_midpoint": [
        2.48653128639857,
        -1.8009262371867056
      ],
      "orientation_vector": [
        -0.0,
        -1.0
      ],
      "half_bracket_size": 2.0000500014965445,
      "bond": [
        0,
        23
      ],
      "fragment": "F2",
      "backbone": true,
      "suspended_anchor_atom": null,
      "suspended_reason": null,
      "source_label": "F2/fragments[0]",
      "marker_id": "0",
      "side": "left",
      "connection_group": "<1",
      "marker_type_index": 3
    },
    {
      "id": 1,
      "bracket_kind": "backbone",
      "pairing_id": "F2/fragments[0]",
      "group_id": ">1:4",
      "ru_midpoint": [
        0.8987641354221401,
        -2.2731740290471105
      ],
      "bond_midpoint": [
        -0.7946195139195495,
        -1.9839496688486695
      ],
      "orientation_vector": [
        0.0,
        -1.0
      ],
      "half_bracket_size": 2.0000500014965445,
      "bond": [
        12,
        34
      ],
      "fragment": "F2",
      "backbone": true,
      "suspended_anchor_atom": null,
      "suspended_reason": null,
      "source_label": "F2/fragments[0]",
      "marker_id": "13",
      "side": "right",
      "connection_group": ">1",
      "marker_type_index": 4
    }
  ]
}
