
     RDKit          2D

  0  0  0  0  0  0  0  0  0  0999 V3000
M  V30 BEGIN CTAB
M  V30 COUNTS 7 6 3 0 0
M  V30 BEGIN ATOM
M  V30 1 H -2.598075 -0.019993 0.000000 0
M  V30 2 H 2.597676 -0.019993 0.000000 0
M  V30 3 C -1.732070 -0.520093 0.000000 0
M  V30 4 O -0.866066 -0.019993 0.000000 0
M  V30 5 C -0.000098 -0.520093 0.000000 0
M  V30 6 C 0.865898 -0.019993 0.000000 0
M  V30 7 O 1.731787 -0.520093 0.000000 0
M  V30 END ATOM
M  V30 BEGIN BOND
M  V30 1 1 3 4
M  V30 2 1 5 6
M  V30 3 1 6 7
M  V30 4 1 4 5
M  V30 5 1 1 3
M  V30 6 1 2 7
M  V30 END BOND
M  V30 BEGIN SGROUP
M  V30 1 SRU 0 ATOMS=(4 1 3 4 5) CBONDS=(2 4 5) -
M  V30 BRKXYZ=(9 -2.1651 -0.7701 0 -2.1651 0.2301 0 0 0 0) BRKXYZ=(9 -0.4331 --
M  V30 0.7701 0 -0.4331 0.2301 0 0 0 0)
M  V30 2 SRU 0 ATOMS=(4 2 4 5 7) CBONDS=(2 4 6) -
M  V30 BRKXYZ=(9 -0.4331 0.2301 0 -0.4331 -0.7701 0 0 0 0) BRKXYZ=(9 2.1647 0.-
M  V30 2301 0 2.1647 -0.7701 0 0 0 0)
M  V30 3 SRU 0 ATOMS=(4 1 2 3 7) CBONDS=(2 5 6) -
M  V30 BRKXYZ=(9 -2.1651 -0.8202 0 -2.1651 0.2801 0 0 0 0) BRKXYZ=(9 2.1647 -0-
M  V30 .8202 0 2.1647 0.2801 0 0 0 0)
M  V30 END SGROUP
M  V30 END CTAB
M  END
>  <BIGSMILES_BRACKET_RECORDS_JSON>
{
  "records": [
    {
      "id": 0,
      "bracket_kind": "backbone",
      "pairing_id": "F1/fragments[0]",
      "group_id": "<1:3",
      "ru_midpoint": [
        -1.299082935541573,
        -0.2700367139859684
      ],
      "bond_midpoint": [
        -2.165072541115175,
        -0.2700428799928608
      ],
      "orientation_vector": [
        0.0,
        -1.0
      ],
      "half_bracket_size": 0.5001001599500253,
      "bond": [
        0,
        2
      ],
      "fragment": "F1",
      "backbone": true,
      "suspended_anchor_atom": null,
      "suspended_reason": null,
      "source_label": "F1/fragments[0]",
      "marker_id": "0",
      "side": "left",
      "connection_group": "<1",
      "marker_type_index": 3
    },
    {
      "id": 1,
      "bracket_kind": "backbone",
      "pairing_id": "F1/fragments[0]",
      "group_id": ">1:4",
      "ru_midpoint": [
        -1.299082935541573,
        -0.2700367139859684
      ],
      "bond_midpoint": [
        -0.4330819755959092,
        -0.2700428799928608
      ],
      "orientation_vector": [
        0.0,
        -1.0
      ],
      "half_bracket_size": 0.5001001599500253,
      "bond": [
        3,
        4
      ],
      "fragment": "F1",
      "backbone": true,
      "suspended_anchor_atom": null,
      "suspended_reason": null,
      "source_label": "F1/fragments[0]",
      "marker_id": "3",
      "side": "right",
      "connection_group": ">1",
      "marker_type_index": 4
    },
    {
      "id": 2,
      "bracket_kind": "backbone",
      "pairing_id": "F1/fragments[1]",
      "group_id": "<1:3",
      "ru_midpoint": [
        0.8658017440146124,
        -0.22005166988520308
      ],
      "bond_midpoint": [
        -0.4330819755959092,
        -0.2700428799928608
      ],
      "orientation_vector": [
        0.0,
        1.0
      ],
      "half_bracket_size": 0.5001001599500253,
      "bond": [
        3,
        4
      ],
      "fragment": "F1",
      "backbone": true,
      "suspended_anchor_atom": null,
      "suspended_reason": null,
      "source_label": "F1/fragments[1]",
      "marker_id": "0",
      "side": "left",
      "connection_group": "<1",
      "marker_type_index": 3
    },
    {
      "id": 3,
      "bracket_kind": "backbone",
      "pairing_id": "F1/fragments[1]",
      "group_id": ">1:4",
      "ru_midpoint": [
        0.8658017440146124,
        -0.22005166988520308
      ],
      "bond_midpoint": [
        2.164731171627174,
        -0.2700428799928608
      ],
      "orientation_vector": [
        0.0,
        1.0
      ],
      "half_bracket_size": 0.5001001599500253,
      "bond": [
        1,
        6
      ],
      "fragment": "F1",
      "backbone": true,
      "suspended_anchor_atom": null,
      "suspended_reason": null,
      "source_label": "F1/fragments[1]",
      "marker_id": "4",
      "side": "right",
      "connection_group": ">1",
      "marker_type_index": 4
    },
    {
      "id": 4,
      "bracket_kind": "backbone",
      "pairing_id": "F1/connected",
      "group_id": "$overall",
      "ru_midpoint": [
        -0.00017890126442043908,
        -0.23433407987688276
      ],
      "bond_midpoint": [
        -2.165072541115175,
        -0.2700428799928608
      ],
      "orientation_vector": [
        0.0,
        -1.0
      ],
      "half_bracket_size": 0.5501101759450279,
      "bond": [
        0,
        2
      ],
      "fragment": "F1",
      "backbone": true,
      "suspended_anchor_atom": null,
      "suspended_reason": null,
      "source_label": "F1/connected",
      "marker_id": "connected-overall-left",
      "side": "left",
      "connection_group": "$overall",
      "marker_type_index": null
    },
    {
      "id": 5,
      "bracket_kind": "backbone",
      "pairing_id": "F1/connected",
      "group_id": "$overall",
      "ru_midpoint": [
        -0.00017890126442043908,
        -0.23433407987688276
      ],
      "bond_midpoint": [
        2.164731171627174,
        -0.2700428799928608
      ],
      "orientation_vector": [
        0.0,
        -1.0
      ],
      "half_bracket_size": 0.5501101759450279,
      "bond": [
        1,
        6
      ],
      "fragment": "F1",
      "backbone": true,
      "suspended_anchor_atom": null,
      "suspended_reason": null,
      "source_label": "F1/connected",
      "marker_id": "connected-overall-right",
      "side": "right",
      "connection_group": "$overall",
      "marker_type_index": null
    }
  ]
}
