
     RDKit          2D

  0  0  0  0  0  0  0  0  0  0999 V3000
M  V30 BEGIN CTAB
M  V30 COUNTS 38 39 1 0 0
M  V30 BEGIN ATOM
M  V30 1 H -5.866045 0.184504 0.000000 0
M  V30 2 H 5.136032 -0.315496 0.000000 0
M  V30 3 C -4.866045 0.184504 0.000000 0
M  V30 4 O -4.866045 -1.193796 0.000000 0
M  V30 5 N -5.705332 -1.651721 0.000000 0 CHG=1
M  V30 6 O -6.545792 -1.122416 0.000000 0
M  V30 7 O -5.728282 -2.642642 0.000000 0 CHG=-1
M  V30 8 O -4.368123 -0.677921 0.000000 0
M  V30 9 C -3.372280 -0.677921 0.000000 0
M  V30 10 C -2.868263 -1.550904 0.000000 0
M  V30 11 O -1.881158 -1.595771 0.000000 0
M  V30 12 N -1.439018 -2.498453 0.000000 0 CHG=1
M  V30 13 O -1.999359 -3.334163 0.000000 0
M  V30 14 O -0.445933 -2.566716 0.000000 0 CHG=-1
M  V30 15 C -2.874358 0.184504 0.000000 0
M  V30 16 C -3.372280 1.046929 0.000000 0
M  V30 17 C -4.368123 1.046929 0.000000 0
M  V30 18 O -4.868942 1.914373 0.000000 0
M  V30 19 O -2.872324 1.912878 0.000000 0
M  V30 20 O -0.868450 0.184504 0.000000 0
M  V30 21 C 1.137458 0.184504 0.000000 0
M  V30 22 O 1.137458 -0.805398 0.000000 0
M  V30 23 N 0.270782 -1.288727 0.000000 0 CHG=1
M  V30 24 O -0.585951 -0.772520 0.000000 0
M  V30 25 O 0.254955 -2.285245 0.000000 0 CHG=-1
M  V30 26 C 1.637102 -0.680904 0.000000 0
M  V30 27 O 1.128051 -1.562606 0.000000 0
M  V30 28 C 2.636389 -0.680904 0.000000 0
M  V30 29 O 3.136230 -1.546654 0.000000 0
M  V30 30 C 3.136032 0.184504 0.000000 0
M  V30 31 C 2.636389 1.049912 0.000000 0
M  V30 32 O 1.637102 1.049912 0.000000 0
M  V30 33 C 3.125780 1.897563 0.000000 0
M  V30 34 O 4.116415 1.874067 0.000000 0
M  V30 35 N 4.626066 2.716873 0.000000 0 CHG=1
M  V30 36 O 4.141585 3.588248 0.000000 0
M  V30 37 O 5.623362 2.695565 0.000000 0 CHG=-1
M  V30 38 O 4.136032 0.184504 0.000000 0
M  V30 END ATOM
M  V30 BEGIN BOND
M  V30 1 1 3 4
M  V30 2 1 4 5
M  V30 3 2 5 6
M  V30 4 1 5 7
M  V30 5 1 3 8
M  V30 6 1 8 9
M  V30 7 1 9 10
M  V30 8 1 10 11
M  V30 9 1 11 12
M  V30 10 2 12 13
M  V30 11 1 12 14
M  V30 12 1 9 15
M  V30 13 1 15 16
M  V30 14 1 16 17
M  V30 15 1 17 18 CFG=1
M  V30 16 1 16 19
M  V30 17 1 15 20 CFG=1
M  V30 18 1 21 20 CFG=3
M  V30 19 1 21 22
M  V30 20 1 22 23
M  V30 21 2 23 24
M  V30 22 1 23 25
M  V30 23 1 21 26
M  V30 24 1 26 27 CFG=3
M  V30 25 1 26 28
M  V30 26 1 28 29
M  V30 27 1 28 30
M  V30 28 1 30 31
M  V30 29 1 31 32
M  V30 30 1 31 33
M  V30 31 1 33 34
M  V30 32 1 34 35
M  V30 33 2 35 36
M  V30 34 1 35 37
M  V30 35 1 30 38 CFG=3
M  V30 36 1 17 3
M  V30 37 1 32 21
M  V30 38 1 3 1 CFG=1
M  V30 39 1 2 38
M  V30 END BOND
M  V30 BEGIN SGROUP
M  V30 1 SRU 0 ATOMS=(4 1 2 3 38) CBONDS=(2 38 39) -
M  V30 BRKXYZ=(9 -5.3660 1.9153 0 -5.3660 -1.5463 0 0 0 0) BRKXYZ=(9 4.6360 1.-
M  V30 6653 0 4.6360 -1.7963 0 0 0 0)
M  V30 END SGROUP
M  V30 END CTAB
M  END
>  <BIGSMILES_BRACKET_RECORDS_JSON>
{
  "records": [
    {
      "id": 0,
      "bracket_kind": "backbone",
      "pairing_id": "F1/fragments[0]",
      "group_id": "<1:3",
      "ru_midpoint": [
        -0.43298491363547353,
        0.15334108807151692
      ],
      "bond_midpoint": [
        -5.366044567930505,
        0.18450405186670116
      ],
      "orientation_vector": [
        0.0,
        1.0
      ],
      "half_bracket_size": 1.730816207466807,
      "bond": [
        0,
        2
      ],
      "fragment": "F1",
      "backbone": true,
      "suspended_anchor_atom": null,
      "suspended_reason": null,
      "source_label": "F1/fragments[0]",
      "marker_id": "0",
      "side": "left",
      "connection_group": "<1",
      "marker_type_index": 3
    },
    {
      "id": 1,
      "bracket_kind": "backbone",
      "pairing_id": "F1/fragments[0]",
      "group_id": ">1:4",
      "ru_midpoint": [
        -0.43298491363547353,
        0.15334108807151692
      ],
      "bond_midpoint": [
        4.636032313847009,
        -0.06549594813329881
      ],
      "orientation_vector": [
        0.0,
        1.0
      ],
      "half_bracket_size": 1.730816207466807,
      "bond": [
        1,
        37
      ],
      "fragment": "F1",
      "backbone": true,
      "suspended_anchor_atom": null,
      "suspended_reason": null,
      "source_label": "F1/fragments[0]",
      "marker_id": "37",
      "side": "right",
      "connection_group": ">1",
      "marker_type_index": 4
    }
  ]
}
