
     RDKit          2D

  0  0  0  0  0  0  0  0  0  0999 V3000
M  V30 BEGIN CTAB
M  V30 COUNTS 10 10 1 0 0
M  V30 BEGIN ATOM
M  V30 1 H -2.866218 -0.381658 0.000000 0
M  V30 2 H 2.865798 -0.381658 0.000000 0
M  V30 3 C -2.000202 -0.881561 0.000000 0
M  V30 4 C -1.134186 -0.381658 0.000000 0
M  V30 5 C -0.134186 -0.381658 0.000000 0
M  V30 6 C 0.365810 0.484361 0.000000 0
M  V30 7 C 1.365802 0.484361 0.000000 0
M  V30 8 C 1.865798 -0.381658 0.000000 0
M  V30 9 C 1.365802 -1.247676 0.000000 0
M  V30 10 C 0.365810 -1.247676 0.000000 0
M  V30 END ATOM
M  V30 BEGIN BOND
M  V30 1 2 3 4 CFG=2
M  V30 2 1 4 5
M  V30 3 2 5 6
M  V30 4 1 6 7
M  V30 5 2 7 8
M  V30 6 1 8 9
M  V30 7 2 9 10
M  V30 8 1 10 5
M  V30 9 1 1 3
M  V30 10 1 2 8
M  V30 END BOND
M  V30 BEGIN SGROUP
M  V30 1 SRU 0 ATOMS=(4 1 2 3 8) CBONDS=(2 9 10) -
M  V30 BRKXYZ=(9 -2.4332 1.1004 0 -2.4332 -2.3636 0 0 0 0) BRKXYZ=(9 2.3658 1.-
M  V30 3504 0 2.3658 -2.1137 0 0 0 0)
M  V30 END SGROUP
M  V30 END CTAB
M  END
>  <BIGSMILES_BRACKET_RECORDS_JSON>
{
  "records": [
    {
      "id": 0,
      "bracket_kind": "backbone",
      "pairing_id": "F1/fragments[0]",
      "group_id": "<1:3",
      "ru_midpoint": [
        0.20602686230366718,
        -0.4316665143852282
      ],
      "bond_midpoint": [
        -2.433209766818368,
        -0.6316091421177347
      ],
      "orientation_vector": [
        0.0,
        1.0
      ],
      "half_bracket_size": 1.732036568470941,
      "bond": [
        0,
        2
      ],
      "fragment": "F1",
      "backbone": true,
      "suspended_anchor_atom": null,
      "suspended_reason": null,
      "source_label": "F1/fragments[0]",
      "marker_id": "0",
      "side": "left",
      "connection_group": "<1",
      "marker_type_index": 3
    },
    {
      "id": 1,
      "bracket_kind": "backbone",
      "pairing_id": "F1/fragments[0]",
      "group_id": ">1:4",
      "ru_midpoint": [
        0.20602686230366718,
        -0.4316665143852282
      ],
      "bond_midpoint": [
        2.365797893353812,
        -0.381657521854264
      ],
      "orientation_vector": [
        0.0,
        1.0
      ],
      "half_bracket_size": 1.732036568470941,
      "bond": [
        1,
        7
      ],
      "fragment": "F1",
      "backbone": true,
      "suspended_anchor_atom": null,
      "suspended_reason": null,
      "source_label": "F1/fragments[0]",
      "marker_id": "9",
      "side": "right",
      "connection_group": ">1",
      "marker_type_index": 4
    }
  ]
}
