
     RDKit          2D

  0  0  0  0  0  0  0  0  0  0999 V3000
M  V30 BEGIN CTAB
M  V30 COUNTS 26 30 1 0 0
M  V30 BEGIN ATOM
M  V30 1 H -6.061174 -0.614631 0.000000 0
M  V30 2 H 6.060775 0.264530 0.000000 0
M  V30 3 C -5.070279 -0.749265 0.000000 0
M  V30 4 O -4.596890 -1.629947 0.000000 0
M  V30 5 C -3.612801 -1.451855 0.000000 0
M  V30 6 C -3.478168 -0.460959 0.000000 0
M  V30 7 N -4.378950 -0.026692 0.000000 0
M  V30 8 C -2.552750 -0.082210 0.000000 0
M  V30 9 C -1.761938 -0.694158 0.000000 0
M  V30 10 C -1.896571 -1.685054 0.000000 0
M  V30 11 C -2.822016 -2.064002 0.000000 0
M  V30 12 C -0.836494 -0.315274 0.000000 0
M  V30 13 C -0.045705 0.296703 0.000000 0
M  V30 14 C 0.879754 -0.082210 0.000000 0
M  V30 15 C 1.014424 -1.073101 0.000000 0
M  V30 16 C 0.223635 -1.685078 0.000000 0
M  V30 17 C -0.701823 -1.306165 0.000000 0
M  V30 18 O 1.998322 -1.251182 0.000000 0
M  V30 19 C 2.471849 -0.370258 0.000000 0
M  V30 20 N 1.780322 0.352065 0.000000 0
M  V30 21 C 3.462724 -0.235470 0.000000 0
M  V30 22 C 4.328737 0.264523 0.000000 0
M  V30 23 C 5.194750 -0.235470 0.000000 0
M  V30 24 C 5.194750 -1.235455 0.000000 0
M  V30 25 C 4.328737 -1.735448 0.000000 0
M  V30 26 C 3.462724 -1.235455 0.000000 0
M  V30 END ATOM
M  V30 BEGIN BOND
M  V30 1 1 3 4
M  V30 2 1 4 5
M  V30 3 2 5 6
M  V30 4 1 6 7
M  V30 5 1 6 8
M  V30 6 2 8 9
M  V30 7 1 9 10
M  V30 8 2 10 11
M  V30 9 1 9 12
M  V30 10 2 12 13
M  V30 11 1 13 14
M  V30 12 2 14 15
M  V30 13 1 15 16
M  V30 14 2 16 17
M  V30 15 1 15 18
M  V30 16 1 18 19
M  V30 17 2 19 20
M  V30 18 1 19 21
M  V30 19 2 21 22
M  V30 20 1 22 23
M  V30 21 2 23 24
M  V30 22 1 24 25
M  V30 23 2 25 26
M  V30 24 2 3 7
M  V30 25 1 12 17
M  V30 26 1 21 26
M  V30 27 1 11 5
M  V30 28 1 20 14
M  V30 29 1 1 3
M  V30 30 1 2 23
M  V30 END BOND
M  V30 BEGIN SGROUP
M  V30 1 SRU 0 ATOMS=(4 1 2 3 23) CBONDS=(2 29 30) -
M  V30 BRKXYZ=(9 -5.5657 1.7341 0 -5.5657 -3.0980 0 0 0 0) BRKXYZ=(9 5.6278 2.-
M  V30 4306 0 5.6278 -2.4015 0 0 0 0)
M  V30 END SGROUP
M  V30 END CTAB
M  END
>  <BIGSMILES_BRACKET_RECORDS_JSON>
{
  "records": [
    {
      "id": 0,
      "bracket_kind": "backbone",
      "pairing_id": "F1/fragments[0]",
      "group_id": "$a:2",
      "ru_midpoint": [
        0.09945951400656118,
        -0.7323660672871493
      ],
      "bond_midpoint": [
        -5.565726454721598,
        -0.6819478034245869
      ],
      "orientation_vector": [
        0.0,
        1.0
      ],
      "half_bracket_size": 2.4160666460182485,
      "bond": [
        0,
        2
      ],
      "fragment": "F1",
      "backbone": true,
      "suspended_anchor_atom": null,
      "suspended_reason": null,
      "source_label": "F1/fragments[0]",
      "marker_id": "0",
      "side": "left",
      "connection_group": "$a",
      "marker_type_index": 2
    },
    {
      "id": 1,
      "bracket_kind": "backbone",
      "pairing_id": "F1/fragments[0]",
      "group_id": "$a:2",
      "ru_midpoint": [
        0.09945951400656118,
        -0.7323660672871493
      ],
      "bond_midpoint": [
        5.627762556816586,
        0.014530292407010037
      ],
      "orientation_vector": [
        0.0,
        1.0
      ],
      "half_bracket_size": 2.4160666460182485,
      "bond": [
        1,
        22
      ],
      "fragment": "F1",
      "backbone": true,
      "suspended_anchor_atom": null,
      "suspended_reason": null,
      "source_label": "F1/fragments[0]",
      "marker_id": "25",
      "side": "right",
      "connection_group": "$a",
      "marker_type_index": 2
    }
  ]
}
