
     RDKit          2D

  0  0  0  0  0  0  0  0  0  0999 V3000
M  V30 BEGIN CTAB
M  V30 COUNTS 15 14 1 0 0
M  V30 BEGIN ATOM
M  V30 1 H -5.628988 -0.032972 0.000000 0
M  V30 2 O 2.164439 -0.532941 0.000000 0
M  V30 3 C 3.030435 -0.032841 0.000000 0
M  V30 4 C 3.896440 -0.532941 0.000000 0
M  V30 5 O 4.762436 -0.032841 0.000000 0
M  V30 6 O -4.763008 -0.533050 0.000000 0
M  V30 7 C -3.897024 -0.032950 0.000000 0
M  V30 8 C -3.031119 -0.533050 0.000000 0
M  V30 9 O -2.165252 -0.032950 0.000000 0
M  V30 10 C -1.299347 -0.533050 0.000000 0
M  V30 11 O -1.299338 -1.533052 0.000000 0
M  V30 12 C -0.433480 -0.032950 0.000000 0
M  V30 13 C 0.432425 -0.533050 0.000000 0
M  V30 14 C 1.298409 -0.032950 0.000000 0
M  V30 15 O 1.298349 0.967052 0.000000 0
M  V30 END ATOM
M  V30 BEGIN BOND
M  V30 1 1 2 3
M  V30 2 1 3 4
M  V30 3 1 4 5
M  V30 4 1 6 7
M  V30 5 1 7 8
M  V30 6 1 8 9
M  V30 7 1 9 10
M  V30 8 2 10 11
M  V30 9 1 10 12
M  V30 10 1 12 13
M  V30 11 1 13 14
M  V30 12 2 14 15
M  V30 13 1 1 6
M  V30 14 1 2 14
M  V30 END BOND
M  V30 BEGIN SGROUP
M  V30 1 SRU 0 ATOMS=(4 1 2 6 14) CBONDS=(2 13 14) -
M  V30 BRKXYZ=(9 -5.1960 0.2171 0 -5.1960 -0.7831 0 0 0 0) BRKXYZ=(9 1.7314 0.-
M  V30 2172 0 1.7314 -0.7830 0 0 0 0)
M  V30 END SGROUP
M  V30 END CTAB
M  END
>  <BIGSMILES_BRACKET_RECORDS_JSON>
{
  "records": [
    {
      "id": 0,
      "bracket_kind": "backbone",
      "pairing_id": "F1/fragments[0]",
      "group_id": "<1:3",
      "ru_midpoint": [
        -1.7322795246932121,
        -0.2829999999999999
      ],
      "bond_midpoint": [
        -5.19599789507728,
        -0.283011446525851
      ],
      "orientation_vector": [
        0.0,
        1.0
      ],
      "half_bracket_size": 0.5001009994649712,
      "bond": [
        0,
        5
      ],
      "fragment": "F1",
      "backbone": true,
      "suspended_anchor_atom": null,
      "suspended_reason": null,
      "source_label": "F1/fragments[0]",
      "marker_id": "0",
      "side": "left",
      "connection_group": "<1",
      "marker_type_index": 3
    },
    {
      "id": 1,
      "bracket_kind": "backbone",
      "pairing_id": "F1/fragments[0]",
      "group_id": ">1:4",
      "ru_midpoint": [
        -1.7322795246932121,
        -0.2829999999999999
      ],
      "bond_midpoint": [
        1.7314238288840729,
        -0.282945206945757
      ],
      "orientation_vector": [
        0.0,
        1.0
      ],
      "half_bracket_size": 0.5001009994649712,
      "bond": [
        1,
        13
      ],
      "fragment": "F1",
      "backbone": true,
      "suspended_anchor_atom": null,
      "suspended_reason": null,
      "source_label": "F1/fragments[0]",
      "marker_id": "11",
      "side": "right",
      "connection_group": ">1",
      "marker_type_index": 4
    }
  ]
}
