
     RDKit          2D

  0  0  0  0  0  0  0  0  0  0999 V3000
M  V30 BEGIN CTAB
M  V30 COUNTS 6 5 1 0 0
M  V30 BEGIN ATOM
M  V30 1 H -1.732182 0.051450 0.000000 0
M  V30 2 O 1.731793 0.051477 0.000000 0
M  V30 3 O -0.866162 -0.448650 0.000000 0
M  V30 4 C -0.000142 0.051450 0.000000 0
M  V30 5 C 0.865841 -0.448650 0.000000 0
M  V30 6 O 0.865861 -1.448652 0.000000 0
M  V30 END ATOM
M  V30 BEGIN BOND
M  V30 1 1 3 4
M  V30 2 1 4 5
M  V30 3 2 5 6
M  V30 4 1 1 3
M  V30 5 1 2 5
M  V30 END BOND
M  V30 BEGIN SGROUP
M  V30 1 SRU 0 ATOMS=(4 1 2 3 5) CBONDS=(2 4 5) -
M  V30 BRKXYZ=(9 -1.2992 0.3015 0 -1.2992 -0.6987 0 0 0 0) BRKXYZ=(9 1.2988 0.-
M  V30 3015 0 1.2988 -0.6987 0 0 0 0)
M  V30 END SGROUP
M  V30 END CTAB
M  END
>  <BIGSMILES_BRACKET_RECORDS_JSON>
{
  "records": [
    {
      "id": 0,
      "bracket_kind": "backbone",
      "pairing_id": "F1/fragments[0]",
      "group_id": "<1:3",
      "ru_midpoint": [
        -0.00019661331992140707,
        -0.1485863694152255
      ],
      "bond_midpoint": [
        -1.2991718132666514,
        -0.19860000000000005
      ],
      "orientation_vector": [
        0.0,
        1.0
      ],
      "half_bracket_size": 0.5001009994649714,
      "bond": [
        0,
        2
      ],
      "fragment": "F1",
      "backbone": true,
      "suspended_anchor_atom": null,
      "suspended_reason": null,
      "source_label": "F1/fragments[0]",
      "marker_id": "0",
      "side": "left",
      "connection_group": "<1",
      "marker_type_index": 3
    },
    {
      "id": 1,
      "bracket_kind": "backbone",
      "pairing_id": "F1/fragments[0]",
      "group_id": ">1:4",
      "ru_midpoint": [
        -0.00019661331992140707,
        -0.1485863694152255
      ],
      "bond_midpoint": [
        1.298817258361423,
        -0.19858652619011136
      ],
      "orientation_vector": [
        0.0,
        1.0
      ],
      "half_bracket_size": 0.5001009994649714,
      "bond": [
        1,
        4
      ],
      "fragment": "F1",
      "backbone": true,
      "suspended_anchor_atom": null,
      "suspended_reason": null,
      "source_label": "F1/fragments[0]",
      "marker_id": "5",
      "side": "right",
      "connection_group": ">1",
      "marker_type_index": 4
    }
  ]
}
