
     RDKit          2D

  0  0  0  0  0  0  0  0  0  0999 V3000
M  V30 BEGIN CTAB
M  V30 COUNTS 13 13 1 0 0
M  V30 BEGIN ATOM
M  V30 1 H -3.925453 -0.087910 0.000000 0
M  V30 2 H 3.924961 -0.588011 0.000000 0
M  V30 3 C -2.974396 -0.396927 0.000000 0
M  V30 4 N -2.665404 -1.347907 0.000000 0
M  V30 5 N -1.665485 -1.347907 0.000000 0
M  V30 6 N -1.356493 -0.396927 0.000000 0
M  V30 7 C -2.165444 0.190811 0.000000 0
M  V30 8 C -0.405436 -0.087910 0.000000 0
M  V30 9 C 0.460768 -0.588011 0.000000 0 RAD=2 VAL=3
M  V30 10 O 0.460768 -1.588011 0.000000 0
M  V30 11 C 1.326965 -0.087910 0.000000 0
M  V30 12 O 2.192969 -0.588011 0.000000 0
M  V30 13 C 3.058965 -0.087910 0.000000 0
M  V30 END ATOM
M  V30 BEGIN BOND
M  V30 1 1 3 4
M  V30 2 2 4 5
M  V30 3 1 5 6
M  V30 4 1 6 7
M  V30 5 1 6 8
M  V30 6 1 8 9
M  V30 7 1 9 10
M  V30 8 1 9 11
M  V30 9 1 11 12
M  V30 10 1 12 13
M  V30 11 2 7 3
M  V30 12 1 1 3
M  V30 13 1 2 13
M  V30 END BOND
M  V30 BEGIN SGROUP
M  V30 1 SRU 0 ATOMS=(4 1 2 3 13) CBONDS=(2 12 13) -
M  V30 BRKXYZ=(9 -3.4499 1.2963 0 -3.4499 -1.7811 0 0 0 0) BRKXYZ=(9 3.4920 1.-
M  V30 2008 0 3.4920 -1.8767 0 0 0 0)
M  V30 END SGROUP
M  V30 END CTAB
M  END
>  <BIGSMILES_BRACKET_RECORDS_JSON>
{
  "records": [
    {
      "id": 0,
      "bracket_kind": "backbone",
      "pairing_id": "F1/fragments[0]",
      "group_id": "<1:3",
      "ru_midpoint": [
        -0.3494500780926675,
        -0.4512372513965599
      ],
      "bond_midpoint": [
        -3.4499245136494325,
        -0.2424188809610099
      ],
      "orientation_vector": [
        0.0,
        1.0
      ],
      "half_bracket_size": 1.5387178559402928,
      "bond": [
        0,
        2
      ],
      "fragment": "F1",
      "backbone": true,
      "suspended_anchor_atom": null,
      "suspended_reason": null,
      "source_label": "F1/fragments[0]",
      "marker_id": "0",
      "side": "left",
      "connection_group": "<1",
      "marker_type_index": 3
    },
    {
      "id": 1,
      "bracket_kind": "backbone",
      "pairing_id": "F1/fragments[0]",
      "group_id": ">1:4",
      "ru_midpoint": [
        -0.3494500780926675,
        -0.4512372513965599
      ],
      "bond_midpoint": [
        3.4919631141011713,
        -0.33796046374893995
      ],
      "orientation_vector": [
        0.0,
        1.0
      ],
      "half_bracket_size": 1.5387178559402928,
      "bond": [
        1,
        12
      ],
      "fragment": "F1",
      "backbone": true,
      "suspended_anchor_atom": null,
      "suspended_reason": null,
      "source_label": "F1/fragments[0]",
      "marker_id": "12",
      "side": "right",
      "connection_group": ">1",
      "marker_type_index": 4
    }
  ]
}
