
     RDKit          2D

  0  0  0  0  0  0  0  0  0  0999 V3000
M  V30 BEGIN CTAB
M  V30 COUNTS 44 45 8 0 0
M  V30 BEGIN ATOM
M  V30 1 C 2.760207 -0.326518 0.000000 0
M  V30 2 C 3.626203 0.173582 0.000000 0
M  V30 3 C 4.492208 -0.326518 0.000000 0
M  V30 4 C 4.492208 -1.326518 0.000000 0
M  V30 5 H 21.812333 -0.326536 0.000000 0
M  V30 6 C 5.358230 0.173488 0.000000 0
M  V30 7 C 6.224189 -0.326519 0.000000 0
M  V30 8 C 6.224189 -1.326521 0.000000 0
M  V30 9 C 5.357987 -1.826454 0.000000 0
M  V30 10 C 5.358187 -2.826456 0.000000 0
M  V30 11 C 6.223989 -3.326525 0.000000 0
M  V30 12 C 7.090191 -2.826592 0.000000 0
M  V30 13 C 7.089991 -1.826590 0.000000 0
M  V30 14 C 7.090250 0.173419 0.000000 0
M  V30 15 C 7.956254 -0.326481 0.000000 0
M  V30 16 C 8.822251 0.173419 0.000000 0
M  V30 17 C 8.822251 1.173419 0.000000 0
M  V30 18 C 9.688255 -0.326481 0.000000 0
M  V30 19 C 10.554338 0.173419 0.000000 0
M  V30 20 C 11.420267 -0.326597 0.000000 0
M  V30 21 C 12.286284 0.173419 0.000000 0
M  V30 22 C 12.286284 1.173443 0.000000 0
M  V30 23 C 13.152337 -0.326597 0.000000 0
M  V30 24 C 14.018353 0.173419 0.000000 0
M  V30 25 C 14.884573 -0.326682 0.000000 0
M  V30 26 C 14.884573 -1.326697 0.000000 0
M  V30 27 C 15.750565 -1.826760 0.000000 0
M  V30 28 C 14.018409 -1.826547 0.000000 0
M  V30 29 C 15.750540 0.173419 0.000000 0
M  V30 30 C 16.616545 -0.326481 0.000000 0
M  V30 31 C 16.616545 0.673443 0.000000 0
M  V30 32 C 16.616545 -1.326406 0.000000 0
M  V30 33 C 15.750652 -1.826500 0.000000 0
M  V30 34 C 17.482566 0.173525 0.000000 0
M  V30 35 C 18.348526 -0.326482 0.000000 0
M  V30 36 C 18.348526 -1.326484 0.000000 0
M  V30 37 C 17.482324 -1.826418 0.000000 0
M  V30 38 C 17.482524 -2.826419 0.000000 0
M  V30 39 C 18.348326 -3.326489 0.000000 0
M  V30 40 C 19.214527 -2.826555 0.000000 0
M  V30 41 C 19.214327 -1.826554 0.000000 0
M  V30 42 C 19.214502 0.173602 0.000000 0
M  V30 43 C 20.080498 -0.326498 0.000000 0
M  V30 44 O 20.946387 0.173602 0.000000 0
M  V30 END ATOM
M  V30 BEGIN BOND
M  V30 1 1 1 2
M  V30 2 1 2 3
M  V30 3 1 3 4
M  V30 4 1 6 7
M  V30 5 1 7 8
M  V30 6 2 8 9
M  V30 7 1 9 10
M  V30 8 2 10 11
M  V30 9 1 11 12
M  V30 10 2 12 13
M  V30 11 1 13 8
M  V30 12 1 3 6
M  V30 13 1 14 15
M  V30 14 2 15 16
M  V30 15 1 16 17
M  V30 16 1 16 18
M  V30 17 1 19 20
M  V30 18 2 20 21
M  V30 19 1 21 22
M  V30 20 1 21 23
M  V30 21 1 18 19
M  V30 22 1 24 25
M  V30 23 1 25 26
M  V30 24 2 26 27
M  V30 25 1 26 28
M  V30 26 1 23 24
M  V30 27 1 29 30
M  V30 28 1 30 31
M  V30 29 1 30 32
M  V30 30 2 32 33
M  V30 31 1 25 29
M  V30 32 1 7 14
M  V30 33 1 34 35
M  V30 34 1 35 36
M  V30 35 2 36 37
M  V30 36 1 37 38
M  V30 37 2 38 39
M  V30 38 1 39 40
M  V30 39 2 40 41
M  V30 40 1 41 36
M  V30 41 1 30 34
M  V30 42 1 42 43
M  V30 43 1 43 44
M  V30 44 1 35 42
M  V30 45 1 5 44
M  V30 END BOND
M  V30 BEGIN SGROUP
M  V30 1 SRU 0 ATOMS=(4 5 35 42 44) CBONDS=(2 44 45) -
M  V30 BRKXYZ=(9 18.7815 -0.5765 0 18.7815 0.4237 0 0 0 0) BRKXYZ=(9 21.3794 --
M  V30 0.5766 0 21.3794 0.4236 0 0 0 0)
M  V30 2 SRU 0 ATOMS=(4 30 34 35 42) CBONDS=(2 41 44) -
M  V30 BRKXYZ=(9 17.0496 0.4235 0 17.0496 -0.5765 0 0 0 0) BRKXYZ=(9 18.7815 0-
M  V30 .4236 0 18.7815 -0.5764 0 0 0 0)
M  V30 3 SRU 0 ATOMS=(4 7 14 18 19) CBONDS=(2 21 32) -
M  V30 BRKXYZ=(9 6.6572 -0.5767 0 6.6572 0.4236 0 0 0 0) BRKXYZ=(9 10.1213 -0.-
M  V30 5766 0 10.1213 0.4236 0 0 0 0)
M  V30 4 SRU 0 ATOMS=(4 18 19 23 24) CBONDS=(2 21 26) -
M  V30 BRKXYZ=(9 10.1213 -0.5766 0 10.1213 0.4236 0 0 0 0) BRKXYZ=(9 13.5853 --
M  V30 0.5767 0 13.5853 0.4235 0 0 0 0)
M  V30 5 SRU 0 ATOMS=(4 23 24 25 29) CBONDS=(2 26 31) -
M  V30 BRKXYZ=(9 13.5853 0.4235 0 13.5853 -0.5767 0 0 0 0) BRKXYZ=(9 15.3176 0-
M  V30 .4235 0 15.3176 -0.5767 0 0 0 0)
M  V30 6 SRU 0 ATOMS=(4 25 29 30 34) CBONDS=(2 31 41) -
M  V30 BRKXYZ=(9 15.3176 0.4235 0 15.3176 -0.5767 0 0 0 0) BRKXYZ=(9 17.0496 0-
M  V30 .4236 0 17.0496 -0.5766 0 0 0 0)
M  V30 7 SRU 0 ATOMS=(4 7 14 30 34) CBONDS=(2 32 41) -
M  V30 BRKXYZ=(9 6.6572 -3.0768 0 6.6572 2.9237 0 0 0 0) BRKXYZ=(9 17.0496 -3.-
M  V30 0767 0 17.0496 2.9237 0 0 0 0)
M  V30 8 SRU 0 ATOMS=(4 3 6 7 14) CBONDS=(2 12 32) -
M  V30 BRKXYZ=(9 4.9252 0.4235 0 4.9252 -0.5765 0 0 0 0) BRKXYZ=(9 6.6572 0.42-
M  V30 35 0 6.6572 -0.5766 0 0 0 0)
M  V30 END SGROUP
M  V30 END CTAB
M  END
>  <BIGSMILES_BRACKET_RECORDS_JSON>
{
  "records": [
    {
      "id": 0,
      "bracket_kind": "backbone",
      "pairing_id": "F4/fragments[0]",
      "group_id": "<1:3",
      "ru_midpoint": [
        20.080430800320045,
        -0.12645839589467106
      ],
      "bond_midpoint": [
        18.7815139760351,
        -0.07644037868116574
      ],
      "orientation_vector": [
        0.0,
        -1.0
      ],
      "half_bracket_size": 0.5001001599500253,
      "bond": [
        34,
        41
      ],
      "fragment": "F4",
      "backbone": true,
      "suspended_anchor_atom": null,
      "suspended_reason": null,
      "source_label": "F4/fragments[0]",
      "marker_id": "0",
      "side": "left",
      "connection_group": "<1",
      "marker_type_index": 3
    },
    {
      "id": 1,
      "bracket_kind": "backbone",
      "pairing_id": "F4/fragments[0]",
      "group_id": ">1:4",
      "ru_midpoint": [
        20.080430800320045,
        -0.12645839589467106
      ],
      "bond_midpoint": [
        21.379360227932608,
        -0.0764671857870135
      ],
      "orientation_vector": [
        0.0,
        -1.0
      ],
      "half_bracket_size": 0.5001001599500253,
      "bond": [
        4,
        43
      ],
      "fragment": "F4",
      "backbone": true,
      "suspended_anchor_atom": null,
      "suspended_reason": null,
      "source_label": "F4/fragments[0]",
      "marker_id": "4",
      "side": "right",
      "connection_group": ">1",
      "marker_type_index": 4
    },
    {
      "id": 2,
      "bracket_kind": "backbone",
      "pairing_id": "F3/fragments[0]",
      "group_id": "$a:2",
      "ru_midpoint": [
        17.915520547335106,
        -0.076478927983059
      ],
      "bond_midpoint": [
        17.04955550773544,
        -0.07647842797750065
      ],
      "orientation_vector": [
        0.0,
        1.0
      ],
      "half_bracket_size": 0.5000070589092322,
      "bond": [
        29,
        33
      ],
      "fragment": "F3",
      "backbone": true,
      "suspended_anchor_atom": null,
      "suspended_reason": null,
      "source_label": "F3/fragments[0]",
      "marker_id": "0",
      "side": "left",
      "connection_group": "$a",
      "marker_type_index": 2
    },
    {
      "id": 3,
      "bracket_kind": "backbone",
      "pairing_id": "F3/fragments[0]",
      "group_id": "$a:2",
      "ru_midpoint": [
        17.915520547335106,
        -0.076478927983059
      ],
      "bond_midpoint": [
        18.7815139760351,
        -0.07644037868116574
      ],
      "orientation_vector": [
        0.0,
        1.0
      ],
      "half_bracket_size": 0.5000070589092322,
      "bond": [
        34,
        41
      ],
      "fragment": "F3",
      "backbone": true,
      "suspended_anchor_atom": null,
      "suspended_reason": null,
      "source_label": "F3/fragments[0]",
      "marker_id": "9",
      "side": "right",
      "connection_group": "$a",
      "marker_type_index": 2
    },
    {
      "id": 4,
      "bracket_kind": "backbone",
      "pairing_id": "F2/fragments[0]",
      "group_id": "$a:2",
      "ru_midpoint": [
        8.38925251340488,
        -0.07653137741887728
      ],
      "bond_midpoint": [
        6.657219382454345,
        -0.07655017578537632
      ],
      "orientation_vector": [
        0.0,
        -1.0
      ],
      "half_bracket_size": 0.5001011957426217,
      "bond": [
        6,
        13
      ],
      "fragment": "F2",
      "backbone": true,
      "suspended_anchor_atom": null,
      "suspended_reason": null,
      "source_label": "F2/fragments[0]",
      "marker_id": "0",
      "side": "left",
      "connection_group": "$a",
      "marker_type_index": 2
    },
    {
      "id": 5,
      "bracket_kind": "backbone",
      "pairing_id": "F2/fragments[0]",
      "group_id": "$a:2",
      "ru_midpoint": [
        8.38925251340488,
        -0.07653137741887728
      ],
      "bond_midpoint": [
        10.121296495252059,
        -0.07653137741887728
      ],
      "orientation_vector": [
        0.0,
        -1.0
      ],
      "half_bracket_size": 0.5001011957426217,
      "bond": [
        17,
        18
      ],
      "fragment": "F2",
      "backbone": true,
      "suspended_anchor_atom": null,
      "suspended_reason": null,
      "source_label": "F2/fragments[0]",
      "marker_id": "6",
      "side": "right",
      "connection_group": "$a",
      "marker_type_index": 2
    },
    {
      "id": 6,
      "bracket_kind": "backbone",
      "pairing_id": "F2/fragments[1]",
      "group_id": "$a:2",
      "ru_midpoint": [
        11.853321558600294,
        -0.07658929633257039
      ],
      "bond_midpoint": [
        10.121296495252059,
        -0.07653137741887728
      ],
      "orientation_vector": [
        0.0,
        -1.0
      ],
      "half_bracket_size": 0.5001011957426217,
      "bond": [
        17,
        18
      ],
      "fragment": "F2",
      "backbone": true,
      "suspended_anchor_atom": null,
      "suspended_reason": null,
      "source_label": "F2/fragments[1]",
      "marker_id": "0",
      "side": "left",
      "connection_group": "$a",
      "marker_type_index": 2
    },
    {
      "id": 7,
      "bracket_kind": "backbone",
      "pairing_id": "F2/fragments[1]",
      "group_id": "$a:2",
      "ru_midpoint": [
        11.853321558600294,
        -0.07658929633257039
      ],
      "bond_midpoint": [
        13.585345080699607,
        -0.07658929633257039
      ],
      "orientation_vector": [
        0.0,
        -1.0
      ],
      "half_bracket_size": 0.5001011957426217,
      "bond": [
        22,
        23
      ],
      "fragment": "F2",
      "backbone": true,
      "suspended_anchor_atom": null,
      "suspended_reason": null,
      "source_label": "F2/fragments[1]",
      "marker_id": "6",
      "side": "right",
      "connection_group": "$a",
      "marker_type_index": 2
    },
    {
      "id": 8,
      "bracket_kind": "backbone",
      "pairing_id": "F2/fragments[2]",
      "group_id": "$a:2",
      "ru_midpoint": [
        14.451459695854892,
        -0.07663189528250702
      ],
      "bond_midpoint": [
        13.585345080699607,
        -0.07658929633257039
      ],
      "orientation_vector": [
        0.0,
        1.0
      ],
      "half_bracket_size": 0.5001011957426217,
      "bond": [
        22,
        23
      ],
      "fragment": "F2",
      "backbone": true,
      "suspended_anchor_atom": null,
      "suspended_reason": null,
      "source_label": "F2/fragments[2]",
      "marker_id": "0",
      "side": "left",
      "connection_group": "$a",
      "marker_type_index": 2
    },
    {
      "id": 9,
      "bracket_kind": "backbone",
      "pairing_id": "F2/fragments[2]",
      "group_id": "$a:2",
      "ru_midpoint": [
        14.451459695854892,
        -0.07663189528250702
      ],
      "bond_midpoint": [
        15.317556710533827,
        -0.07663189528250708
      ],
      "orientation_vector": [
        0.0,
        1.0
      ],
      "half_bracket_size": 0.5001011957426217,
      "bond": [
        24,
        28
      ],
      "fragment": "F2",
      "backbone": true,
      "suspended_anchor_atom": null,
      "suspended_reason": null,
      "source_label": "F2/fragments[2]",
      "marker_id": "6",
      "side": "right",
      "connection_group": "$a",
      "marker_type_index": 2
    },
    {
      "id": 10,
      "bracket_kind": "backbone",
      "pairing_id": "F2/fragments[3]",
      "group_id": "$a:2",
      "ru_midpoint": [
        16.18357332015633,
        -0.07653137741887728
      ],
      "bond_midpoint": [
        15.317556710533827,
        -0.07663189528250708
      ],
      "orientation_vector": [
        0.0,
        1.0
      ],
      "half_bracket_size": 0.5001011957426217,
      "bond": [
        24,
        28
      ],
      "fragment": "F2",
      "backbone": true,
      "suspended_anchor_atom": null,
      "suspended_reason": null,
      "source_label": "F2/fragments[3]",
      "marker_id": "0",
      "side": "left",
      "connection_group": "$a",
      "marker_type_index": 2
    },
    {
      "id": 11,
      "bracket_kind": "backbone",
      "pairing_id": "F2/fragments[3]",
      "group_id": "$a:2",
      "ru_midpoint": [
        16.18357332015633,
        -0.07653137741887728
      ],
      "bond_midpoint": [
        17.04955550773544,
        -0.07647842797750065
      ],
      "orientation_vector": [
        0.0,
        1.0
      ],
      "half_bracket_size": 0.5001011957426217,
      "bond": [
        29,
        33
      ],
      "fragment": "F2",
      "backbone": true,
      "suspended_anchor_atom": null,
      "suspended_reason": null,
      "source_label": "F2/fragments[3]",
      "marker_id": "6",
      "side": "right",
      "connection_group": "$a",
      "marker_type_index": 2
    },
    {
      "id": 12,
      "bracket_kind": "backbone",
      "pairing_id": "F2/connected",
      "group_id": "$overall",
      "ru_midpoint": [
        11.853368986687611,
        -0.07656228537473664
      ],
      "bond_midpoint": [
        6.657219382454345,
        -0.07655017578537632
      ],
      "orientation_vector": [
        0.0,
        -1.0
      ],
      "half_bracket_size": 3.0002029145000337,
      "bond": [
        6,
        13
      ],
      "fragment": "F2",
      "backbone": true,
      "suspended_anchor_atom": null,
      "suspended_reason": null,
      "source_label": "F2/connected",
      "marker_id": "connected-overall-left",
      "side": "left",
      "connection_group": "$overall",
      "marker_type_index": null
    },
    {
      "id": 13,
      "bracket_kind": "backbone",
      "pairing_id": "F2/connected",
      "group_id": "$overall",
      "ru_midpoint": [
        11.853368986687611,
        -0.07656228537473664
      ],
      "bond_midpoint": [
        17.04955550773544,
        -0.07647842797750065
      ],
      "orientation_vector": [
        0.0,
        -1.0
      ],
      "half_bracket_size": 3.0002029145000337,
      "bond": [
        29,
        33
      ],
      "fragment": "F2",
      "backbone": true,
      "suspended_anchor_atom": null,
      "suspended_reason": null,
      "source_label": "F2/connected",
      "marker_id": "connected-overall-right",
      "side": "right",
      "connection_group": "$overall",
      "marker_type_index": null
    },
    {
      "id": 14,
      "bracket_kind": "backbone",
      "pairing_id": "F1/fragments[0]",
      "group_id": "$a:2",
      "ru_midpoint": [
        5.791183690258831,
        -0.07651552470494016
      ],
      "bond_midpoint": [
        4.92521865065917,
        -0.07651502469938148
      ],
      "orientation_vector": [
        0.0,
        1.0
      ],
      "half_bracket_size": 0.5000070589092322,
      "bond": [
        2,
        5
      ],
      "fragment": "F1",
      "backbone": true,
      "suspended_anchor_atom": null,
      "suspended_reason": null,
      "source_label": "F1/fragments[0]",
      "marker_id": "0",
      "side": "left",
      "connection_group": "$a",
      "marker_type_index": 2
    },
    {
      "id": 15,
      "bracket_kind": "backbone",
      "pairing_id": "F1/fragments[0]",
      "group_id": "$a:2",
      "ru_midpoint": [
        5.791183690258831,
        -0.07651552470494016
      ],
      "bond_midpoint": [
        6.657219382454345,
        -0.07655017578537632
      ],
      "orientation_vector": [
        0.0,
        1.0
      ],
      "half_bracket_size": 0.5000070589092322,
      "bond": [
        6,
        13
      ],
      "fragment": "F1",
      "backbone": true,
      "suspended_anchor_atom": null,
      "suspended_reason": null,
      "source_label": "F1/fragments[0]",
      "marker_id": "9",
      "side": "right",
      "connection_group": "$a",
      "marker_type_index": 2
    }
  ]
}
