
     RDKit          2D

  0  0  0  0  0  0  0  0  0  0999 V3000
M  V30 BEGIN CTAB
M  V30 COUNTS 37 37 7 0 0
M  V30 BEGIN ATOM
M  V30 1 C 1.917637 -0.111109 0.000000 0
M  V30 2 C 2.783633 0.388791 0.000000 0
M  V30 3 C 3.649637 -0.111109 0.000000 0
M  V30 4 C 3.649637 -1.111109 0.000000 0
M  V30 5 H 18.372106 0.388928 0.000000 0
M  V30 6 C 4.515699 0.388829 0.000000 0
M  V30 7 C 5.381703 -0.111071 0.000000 0
M  V30 8 C 6.247699 0.388829 0.000000 0
M  V30 9 C 6.247699 1.388829 0.000000 0
M  V30 10 C 7.113704 -0.111071 0.000000 0
M  V30 11 C 7.979787 0.388829 0.000000 0
M  V30 12 C 8.845716 -0.111187 0.000000 0
M  V30 13 C 9.711732 0.388829 0.000000 0
M  V30 14 C 9.711732 1.388854 0.000000 0
M  V30 15 C 10.577786 -0.111187 0.000000 0
M  V30 16 C 11.443802 0.388829 0.000000 0
M  V30 17 C 12.310022 -0.111272 0.000000 0
M  V30 18 C 12.310022 -1.111286 0.000000 0
M  V30 19 C 13.176013 -1.611349 0.000000 0
M  V30 20 C 11.443857 -1.611137 0.000000 0
M  V30 21 C 13.175989 0.388829 0.000000 0
M  V30 22 C 14.041993 -0.111071 0.000000 0
M  V30 23 C 14.041993 0.888854 0.000000 0
M  V30 24 C 14.041993 -1.110996 0.000000 0
M  V30 25 C 13.176101 -1.611090 0.000000 0
M  V30 26 C 14.908015 0.388935 0.000000 0
M  V30 27 C 15.773974 -0.111072 0.000000 0
M  V30 28 C 15.773974 -1.111074 0.000000 0
M  V30 29 C 14.907772 -1.611008 0.000000 0
M  V30 30 C 14.907972 -2.611009 0.000000 0
M  V30 31 C 15.773774 -3.111079 0.000000 0
M  V30 32 C 16.639976 -2.611145 0.000000 0
M  V30 33 C 16.639776 -1.611144 0.000000 0
M  V30 34 Si 16.640000 0.388928 0.000000 0 VAL=4
M  V30 35 C 16.640000 -0.610997 0.000000 0
M  V30 36 C 16.640000 1.388953 0.000000 0
M  V30 37 O 17.506053 -0.111088 0.000000 0
M  V30 END ATOM
M  V30 BEGIN BOND
M  V30 1 1 1 2
M  V30 2 1 2 3
M  V30 3 1 3 4
M  V30 4 1 6 7
M  V30 5 2 7 8
M  V30 6 1 8 9
M  V30 7 1 8 10
M  V30 8 1 11 12
M  V30 9 2 12 13
M  V30 10 1 13 14
M  V30 11 1 13 15
M  V30 12 1 10 11
M  V30 13 1 16 17
M  V30 14 1 17 18
M  V30 15 2 18 19
M  V30 16 1 18 20
M  V30 17 1 15 16
M  V30 18 1 21 22
M  V30 19 1 22 23
M  V30 20 1 22 24
M  V30 21 2 24 25
M  V30 22 1 17 21
M  V30 23 1 3 6
M  V30 24 1 26 27
M  V30 25 1 27 28
M  V30 26 2 28 29
M  V30 27 1 29 30
M  V30 28 2 30 31
M  V30 29 1 31 32
M  V30 30 2 32 33
M  V30 31 1 33 28
M  V30 32 1 22 26
M  V30 33 1 34 35
M  V30 34 1 34 36
M  V30 35 1 34 37
M  V30 36 1 27 34
M  V30 37 1 5 37
M  V30 END BOND
M  V30 BEGIN SGROUP
M  V30 1 SRU 0 ATOMS=(4 5 27 34 37) CBONDS=(2 36 37) -
M  V30 BRKXYZ=(9 16.2070 -0.3611 0 16.2070 0.6389 0 0 0 0) BRKXYZ=(9 17.9391 --
M  V30 0.3611 0 17.9391 0.6389 0 0 0 0)
M  V30 2 SRU 0 ATOMS=(4 22 26 27 34) CBONDS=(2 32 36) -
M  V30 BRKXYZ=(9 14.4750 0.6389 0 14.4750 -0.3611 0 0 0 0) BRKXYZ=(9 16.2070 0-
M  V30 .6389 0 16.2070 -0.3611 0 0 0 0)
M  V30 3 SRU 0 ATOMS=(4 3 6 10 11) CBONDS=(2 12 23) -
M  V30 BRKXYZ=(9 4.0827 -0.3612 0 4.0827 0.6390 0 0 0 0) BRKXYZ=(9 7.5467 -0.3-
M  V30 612 0 7.5467 0.6390 0 0 0 0)
M  V30 4 SRU 0 ATOMS=(4 10 11 15 16) CBONDS=(2 12 17) -
M  V30 BRKXYZ=(9 7.5467 -0.3612 0 7.5467 0.6390 0 0 0 0) BRKXYZ=(9 11.0108 -0.-
M  V30 3613 0 11.0108 0.6389 0 0 0 0)
M  V30 5 SRU 0 ATOMS=(4 15 16 17 21) CBONDS=(2 17 22) -
M  V30 BRKXYZ=(9 11.0108 0.6389 0 11.0108 -0.3613 0 0 0 0) BRKXYZ=(9 12.7430 0-
M  V30 .6389 0 12.7430 -0.3613 0 0 0 0)
M  V30 6 SRU 0 ATOMS=(4 17 21 22 26) CBONDS=(2 22 32) -
M  V30 BRKXYZ=(9 12.7430 0.6389 0 12.7430 -0.3613 0 0 0 0) BRKXYZ=(9 14.4750 0-
M  V30 .6390 0 14.4750 -0.3612 0 0 0 0)
M  V30 7 SRU 0 ATOMS=(4 3 6 22 26) CBONDS=(2 23 32) -
M  V30 BRKXYZ=(9 4.0827 -2.8613 0 4.0827 3.1391 0 0 0 0) BRKXYZ=(9 14.4750 -2.-
M  V30 8613 0 14.4750 3.1391 0 0 0 0)
M  V30 END SGROUP
M  V30 END CTAB
M  END
>  <BIGSMILES_BRACKET_RECORDS_JSON>
{
  "records": [
    {
      "id": 0,
      "bracket_kind": "backbone",
      "pairing_id": "F3/fragments[0]",
      "group_id": "<1:3",
      "ru_midpoint": [
        17.073038917869653,
        0.1389260412449177
      ],
      "bond_midpoint": [
        16.206986861146945,
        0.13892787614768606
      ],
      "orientation_vector": [
        0.0,
        -1.0
      ],
      "half_bracket_size": 0.5000159997440081,
      "bond": [
        26,
        33
      ],
      "fragment": "F3",
      "backbone": true,
      "suspended_anchor_atom": null,
      "suspended_reason": null,
      "source_label": "F3/fragments[0]",
      "marker_id": "0",
      "side": "left",
      "connection_group": "<1",
      "marker_type_index": 3
    },
    {
      "id": 1,
      "bracket_kind": "backbone",
      "pairing_id": "F3/fragments[0]",
      "group_id": ">1:4",
      "ru_midpoint": [
        17.073038917869653,
        0.1389260412449177
      ],
      "bond_midpoint": [
        17.93907923727012,
        0.13891987627568234
      ],
      "orientation_vector": [
        0.0,
        -1.0
      ],
      "half_bracket_size": 0.5000159997440081,
      "bond": [
        4,
        36
      ],
      "fragment": "F3",
      "backbone": true,
      "suspended_anchor_atom": null,
      "suspended_reason": null,
      "source_label": "F3/fragments[0]",
      "marker_id": "5",
      "side": "right",
      "connection_group": ">1",
      "marker_type_index": 4
    },
    {
      "id": 2,
      "bracket_kind": "backbone",
      "pairing_id": "F2/fragments[0]",
      "group_id": "$a:2",
      "ru_midpoint": [
        15.34096913553935,
        0.13893140560230183
      ],
      "bond_midpoint": [
        14.475004095939688,
        0.1389319056078606
      ],
      "orientation_vector": [
        0.0,
        1.0
      ],
      "half_bracket_size": 0.5000070589092322,
      "bond": [
        21,
        25
      ],
      "fragment": "F2",
      "backbone": true,
      "suspended_anchor_atom": null,
      "suspended_reason": null,
      "source_label": "F2/fragments[0]",
      "marker_id": "0",
      "side": "left",
      "connection_group": "$a",
      "marker_type_index": 2
    },
    {
      "id": 3,
      "bracket_kind": "backbone",
      "pairing_id": "F2/fragments[0]",
      "group_id": "$a:2",
      "ru_midpoint": [
        15.34096913553935,
        0.13893140560230183
      ],
      "bond_midpoint": [
        16.206986861146945,
        0.13892787614768606
      ],
      "orientation_vector": [
        0.0,
        1.0
      ],
      "half_bracket_size": 0.5000070589092322,
      "bond": [
        26,
        33
      ],
      "fragment": "F2",
      "backbone": true,
      "suspended_anchor_atom": null,
      "suspended_reason": null,
      "source_label": "F2/fragments[0]",
      "marker_id": "9",
      "side": "right",
      "connection_group": "$a",
      "marker_type_index": 2
    },
    {
      "id": 4,
      "bracket_kind": "backbone",
      "pairing_id": "F1/fragments[0]",
      "group_id": "$a:2",
      "ru_midpoint": [
        5.814701101609125,
        0.13887895616648432
      ],
      "bond_midpoint": [
        4.082667970658591,
        0.13886015779998534
      ],
      "orientation_vector": [
        0.0,
        -1.0
      ],
      "half_bracket_size": 0.5001011957426217,
      "bond": [
        2,
        5
      ],
      "fragment": "F1",
      "backbone": true,
      "suspended_anchor_atom": null,
      "suspended_reason": null,
      "source_label": "F1/fragments[0]",
      "marker_id": "0",
      "side": "left",
      "connection_group": "$a",
      "marker_type_index": 2
    },
    {
      "id": 5,
      "bracket_kind": "backbone",
      "pairing_id": "F1/fragments[0]",
      "group_id": "$a:2",
      "ru_midpoint": [
        5.814701101609125,
        0.13887895616648432
      ],
      "bond_midpoint": [
        7.546745083456305,
        0.1388789561664845
      ],
      "orientation_vector": [
        0.0,
        -1.0
      ],
      "half_bracket_size": 0.5001011957426217,
      "bond": [
        9,
        10
      ],
      "fragment": "F1",
      "backbone": true,
      "suspended_anchor_atom": null,
      "suspended_reason": null,
      "source_label": "F1/fragments[0]",
      "marker_id": "6",
      "side": "right",
      "connection_group": "$a",
      "marker_type_index": 2
    },
    {
      "id": 6,
      "bracket_kind": "backbone",
      "pairing_id": "F1/fragments[1]",
      "group_id": "$a:2",
      "ru_midpoint": [
        9.27877014680454,
        0.13882103725279143
      ],
      "bond_midpoint": [
        7.546745083456305,
        0.1388789561664845
      ],
      "orientation_vector": [
        0.0,
        -1.0
      ],
      "half_bracket_size": 0.5001011957426217,
      "bond": [
        9,
        10
      ],
      "fragment": "F1",
      "backbone": true,
      "suspended_anchor_atom": null,
      "suspended_reason": null,
      "source_label": "F1/fragments[1]",
      "marker_id": "0",
      "side": "left",
      "connection_group": "$a",
      "marker_type_index": 2
    },
    {
      "id": 7,
      "bracket_kind": "backbone",
      "pairing_id": "F1/fragments[1]",
      "group_id": "$a:2",
      "ru_midpoint": [
        9.27877014680454,
        0.13882103725279143
      ],
      "bond_midpoint": [
        11.010793668903851,
        0.13882103725279143
      ],
      "orientation_vector": [
        0.0,
        -1.0
      ],
      "half_bracket_size": 0.5001011957426217,
      "bond": [
        14,
        15
      ],
      "fragment": "F1",
      "backbone": true,
      "suspended_anchor_atom": null,
      "suspended_reason": null,
      "source_label": "F1/fragments[1]",
      "marker_id": "6",
      "side": "right",
      "connection_group": "$a",
      "marker_type_index": 2
    },
    {
      "id": 8,
      "bracket_kind": "backbone",
      "pairing_id": "F1/fragments[2]",
      "group_id": "$a:2",
      "ru_midpoint": [
        11.876908284059137,
        0.1387784383028548
      ],
      "bond_midpoint": [
        11.010793668903851,
        0.13882103725279143
      ],
      "orientation_vector": [
        0.0,
        1.0
      ],
      "half_bracket_size": 0.5001011957426217,
      "bond": [
        14,
        15
      ],
      "fragment": "F1",
      "backbone": true,
      "suspended_anchor_atom": null,
      "suspended_reason": null,
      "source_label": "F1/fragments[2]",
      "marker_id": "0",
      "side": "left",
      "connection_group": "$a",
      "marker_type_index": 2
    },
    {
      "id": 9,
      "bracket_kind": "backbone",
      "pairing_id": "F1/fragments[2]",
      "group_id": "$a:2",
      "ru_midpoint": [
        11.876908284059137,
        0.1387784383028548
      ],
      "bond_midpoint": [
        12.743005298738073,
        0.1387784383028547
      ],
      "orientation_vector": [
        0.0,
        1.0
      ],
      "half_bracket_size": 0.5001011957426217,
      "bond": [
        16,
        20
      ],
      "fragment": "F1",
      "backbone": true,
      "suspended_anchor_atom": null,
      "suspended_reason": null,
      "source_label": "F1/fragments[2]",
      "marker_id": "6",
      "side": "right",
      "connection_group": "$a",
      "marker_type_index": 2
    },
    {
      "id": 10,
      "bracket_kind": "backbone",
      "pairing_id": "F1/fragments[3]",
      "group_id": "$a:2",
      "ru_midpoint": [
        13.609021908360576,
        0.13887895616648455
      ],
      "bond_midpoint": [
        12.743005298738073,
        0.1387784383028547
      ],
      "orientation_vector": [
        0.0,
        1.0
      ],
      "half_bracket_size": 0.5001011957426217,
      "bond": [
        16,
        20
      ],
      "fragment": "F1",
      "backbone": true,
      "suspended_anchor_atom": null,
      "suspended_reason": null,
      "source_label": "F1/fragments[3]",
      "marker_id": "0",
      "side": "left",
      "connection_group": "$a",
      "marker_type_index": 2
    },
    {
      "id": 11,
      "bracket_kind": "backbone",
      "pairing_id": "F1/fragments[3]",
      "group_id": "$a:2",
      "ru_midpoint": [
        13.609021908360576,
        0.13887895616648455
      ],
      "bond_midpoint": [
        14.475004095939688,
        0.1389319056078606
      ],
      "orientation_vector": [
        0.0,
        1.0
      ],
      "half_bracket_size": 0.5001011957426217,
      "bond": [
        21,
        25
      ],
      "fragment": "F1",
      "backbone": true,
      "suspended_anchor_atom": null,
      "suspended_reason": null,
      "source_label": "F1/fragments[3]",
      "marker_id": "6",
      "side": "right",
      "connection_group": "$a",
      "marker_type_index": 2
    },
    {
      "id": 12,
      "bracket_kind": "backbone",
      "pairing_id": "F1/connected",
      "group_id": "$overall",
      "ru_midpoint": [
        9.278817574891857,
        0.13884804821062496
      ],
      "bond_midpoint": [
        4.082667970658591,
        0.13886015779998534
      ],
      "orientation_vector": [
        0.0,
        -1.0
      ],
      "half_bracket_size": 3.0002029145000337,
      "bond": [
        2,
        5
      ],
      "fragment": "F1",
      "backbone": true,
      "suspended_anchor_atom": null,
      "suspended_reason": null,
      "source_label": "F1/connected",
      "marker_id": "connected-overall-left",
      "side": "left",
      "connection_group": "$overall",
      "marker_type_index": null
    },
    {
      "id": 13,
      "bracket_kind": "backbone",
      "pairing_id": "F1/connected",
      "group_id": "$overall",
      "ru_midpoint": [
        9.278817574891857,
        0.13884804821062496
      ],
      "bond_midpoint": [
        14.475004095939688,
        0.1389319056078606
      ],
      "orientation_vector": [
        0.0,
        -1.0
      ],
      "half_bracket_size": 3.0002029145000337,
      "bond": [
        21,
        25
      ],
      "fragment": "F1",
      "backbone": true,
      "suspended_anchor_atom": null,
      "suspended_reason": null,
      "source_label": "F1/connected",
      "marker_id": "connected-overall-right",
      "side": "right",
      "connection_group": "$overall",
      "marker_type_index": null
    }
  ]
}
