
     RDKit          2D

  0  0  0  0  0  0  0  0  0  0999 V3000
M  V30 BEGIN CTAB
M  V30 COUNTS 21 21 4 0 0
M  V30 BEGIN ATOM
M  V30 1 H -5.369633 0.603823 0.000000 0
M  V30 2 C 2.424736 0.103811 0.000000 0
M  V30 3 C 3.290740 0.603912 0.000000 0
M  V30 4 C 4.156736 0.103811 0.000000 0
M  V30 5 C 2.424736 -0.896189 0.000000 0
M  V30 6 C -4.503588 0.103858 0.000000 0
M  V30 7 C -4.503588 -0.896074 0.000000 0
M  V30 8 C -3.637701 -1.396165 0.000000 0
M  V30 9 C -3.637514 0.603824 0.000000 0
M  V30 10 C -2.771469 0.103858 0.000000 0
M  V30 11 C -1.905465 0.603758 0.000000 0
M  V30 12 C -1.039468 0.103858 0.000000 0
M  V30 13 C -0.173464 0.603758 0.000000 0
M  V30 14 C 0.692585 0.103798 0.000000 0
M  V30 15 C 0.692585 -0.896127 0.000000 0
M  V30 16 C 1.558487 -1.396227 0.000000 0
M  V30 17 C 1.558315 -2.396253 0.000000 0
M  V30 18 C 0.692239 -2.896179 0.000000 0
M  V30 19 C -0.173663 -2.396079 0.000000 0
M  V30 20 C -0.173491 -1.396053 0.000000 0
M  V30 21 C 1.558681 0.603761 0.000000 0
M  V30 END ATOM
M  V30 BEGIN BOND
M  V30 1 1 2 3
M  V30 2 1 3 4
M  V30 3 1 2 5
M  V30 4 1 6 7
M  V30 5 1 7 8
M  V30 6 1 6 9
M  V30 7 1 10 11
M  V30 8 1 11 12
M  V30 9 1 12 13
M  V30 10 1 9 10
M  V30 11 1 1 6
M  V30 12 1 14 15
M  V30 13 1 15 16
M  V30 14 1 16 17
M  V30 15 1 17 18
M  V30 16 1 18 19
M  V30 17 1 19 20
M  V30 18 1 14 21
M  V30 19 1 20 15
M  V30 20 1 13 14
M  V30 21 1 2 21
M  V30 END BOND
M  V30 BEGIN SGROUP
M  V30 1 SRU 0 ATOMS=(4 2 13 14 21) CBONDS=(2 20 21) -
M  V30 BRKXYZ=(9 0.2596 0.8537 0 0.2596 -0.1462 0 0 0 0) BRKXYZ=(9 1.9917 0.85-
M  V30 37 0 1.9917 -0.1462 0 0 0 0)
M  V30 2 SRU 0 ATOMS=(4 1 6 9 10) CBONDS=(2 10 11) -
M  V30 BRKXYZ=(9 -4.9366 0.8538 0 -4.9366 -0.1461 0 0 0 0) BRKXYZ=(9 -3.2045 0-
M  V30 .8538 0 -3.2045 -0.1461 0 0 0 0)
M  V30 3 SRU 0 ATOMS=(4 9 10 13 14) CBONDS=(2 10 20) -
M  V30 BRKXYZ=(9 -3.2045 -0.1461 0 -3.2045 0.8538 0 0 0 0) BRKXYZ=(9 0.2596 -0-
M  V30 .1462 0 0.2596 0.8537 0 0 0 0)
M  V30 4 SRU 0 ATOMS=(4 1 6 13 14) CBONDS=(2 11 20) -
M  V30 BRKXYZ=(9 -4.9366 2.3538 0 -4.9366 -1.6461 0 0 0 0) BRKXYZ=(9 0.2596 2.-
M  V30 3538 0 0.2596 -1.6462 0 0 0 0)
M  V30 END SGROUP
M  V30 END CTAB
M  END
>  <BIGSMILES_BRACKET_RECORDS_JSON>
{
  "records": [
    {
      "id": 0,
      "bracket_kind": "backbone",
      "pairing_id": "F2/fragments[0]",
      "group_id": "$a:2",
      "ru_midpoint": [
        1.1256387222263384,
        0.35377975884621193
      ],
      "bond_midpoint": [
        0.2595604291596735,
        0.35377813898294463
      ],
      "orientation_vector": [
        0.0,
        1.0
      ],
      "half_bracket_size": 0.4999626581630139,
      "bond": [
        12,
        13
      ],
      "fragment": "F2",
      "backbone": true,
      "suspended_anchor_atom": null,
      "suspended_reason": null,
      "source_label": "F2/fragments[0]",
      "marker_id": "0",
      "side": "left",
      "connection_group": "$a",
      "marker_type_index": 2
    },
    {
      "id": 1,
      "bracket_kind": "backbone",
      "pairing_id": "F2/fragments[0]",
      "group_id": "$a:2",
      "ru_midpoint": [
        1.1256387222263384,
        0.35377975884621193
      ],
      "bond_midpoint": [
        1.991708588701616,
        0.3537862431095866
      ],
      "orientation_vector": [
        0.0,
        1.0
      ],
      "half_bracket_size": 0.4999626581630139,
      "bond": [
        1,
        20
      ],
      "fragment": "F2",
      "backbone": true,
      "suspended_anchor_atom": null,
      "suspended_reason": null,
      "source_label": "F2/fragments[0]",
      "marker_id": "9",
      "side": "right",
      "connection_group": "$a",
      "marker_type_index": 2
    },
    {
      "id": 2,
      "bracket_kind": "backbone",
      "pairing_id": "F1/fragments[0]",
      "group_id": "$a:2",
      "ru_midpoint": [
        -4.070541615002585,
        0.35384065250666263
      ],
      "bond_midpoint": [
        -4.936610116905711,
        0.3538405725121524
      ],
      "orientation_vector": [
        0.0,
        1.0
      ],
      "half_bracket_size": 0.49996592864167977,
      "bond": [
        0,
        5
      ],
      "fragment": "F1",
      "backbone": true,
      "suspended_anchor_atom": null,
      "suspended_reason": null,
      "source_label": "F1/fragments[0]",
      "marker_id": "0",
      "side": "left",
      "connection_group": "$a",
      "marker_type_index": 2
    },
    {
      "id": 3,
      "bracket_kind": "backbone",
      "pairing_id": "F1/fragments[0]",
      "group_id": "$a:2",
      "ru_midpoint": [
        -4.070541615002585,
        0.35384065250666263
      ],
      "bond_midpoint": [
        -3.204491448927154,
        0.35384065250666263
      ],
      "orientation_vector": [
        0.0,
        1.0
      ],
      "half_bracket_size": 0.49996592864167977,
      "bond": [
        8,
        9
      ],
      "fragment": "F1",
      "backbone": true,
      "suspended_anchor_atom": null,
      "suspended_reason": null,
      "source_label": "F1/fragments[0]",
      "marker_id": "5",
      "side": "right",
      "connection_group": "$a",
      "marker_type_index": 2
    },
    {
      "id": 4,
      "bracket_kind": "backbone",
      "pairing_id": "F1/fragments[1]",
      "group_id": "$a:2",
      "ru_midpoint": [
        -1.4724664494573925,
        0.3538077681935037
      ],
      "bond_midpoint": [
        -3.204491448927154,
        0.35384065250666263
      ],
      "orientation_vector": [
        0.0,
        -1.0
      ],
      "half_bracket_size": 0.49996592864167977,
      "bond": [
        8,
        9
      ],
      "fragment": "F1",
      "backbone": true,
      "suspended_anchor_atom": null,
      "suspended_reason": null,
      "source_label": "F1/fragments[1]",
      "marker_id": "0",
      "side": "left",
      "connection_group": "$a",
      "marker_type_index": 2
    },
    {
      "id": 5,
      "bracket_kind": "backbone",
      "pairing_id": "F1/fragments[1]",
      "group_id": "$a:2",
      "ru_midpoint": [
        -1.4724664494573925,
        0.3538077681935037
      ],
      "bond_midpoint": [
        0.2595604291596735,
        0.35377813898294463
      ],
      "orientation_vector": [
        0.0,
        -1.0
      ],
      "half_bracket_size": 0.49996592864167977,
      "bond": [
        12,
        13
      ],
      "fragment": "F1",
      "backbone": true,
      "suspended_anchor_atom": null,
      "suspended_reason": null,
      "source_label": "F1/fragments[1]",
      "marker_id": "5",
      "side": "right",
      "connection_group": "$a",
      "marker_type_index": 2
    },
    {
      "id": 6,
      "bracket_kind": "backbone",
      "pairing_id": "F1/connected",
      "group_id": "$overall",
      "ru_midpoint": [
        -2.3385085093737716,
        0.35382421035008305
      ],
      "bond_midpoint": [
        -4.936610116905711,
        0.3538405725121524
      ],
      "orientation_vector": [
        0.0,
        1.0
      ],
      "half_bracket_size": 1.9999881836407192,
      "bond": [
        0,
        5
      ],
      "fragment": "F1",
      "backbone": true,
      "suspended_anchor_atom": null,
      "suspended_reason": null,
      "source_label": "F1/connected",
      "marker_id": "connected-overall-left",
      "side": "left",
      "connection_group": "$overall",
      "marker_type_index": null
    },
    {
      "id": 7,
      "bracket_kind": "backbone",
      "pairing_id": "F1/connected",
      "group_id": "$overall",
      "ru_midpoint": [
        -2.3385085093737716,
        0.35382421035008305
      ],
      "bond_midpoint": [
        0.2595604291596735,
        0.35377813898294463
      ],
      "orientation_vector": [
        0.0,
        1.0
      ],
      "half_bracket_size": 1.9999881836407192,
      "bond": [
        12,
        13
      ],
      "fragment": "F1",
      "backbone": true,
      "suspended_anchor_atom": null,
      "suspended_reason": null,
      "source_label": "F1/connected",
      "marker_id": "connected-overall-right",
      "side": "right",
      "connection_group": "$overall",
      "marker_type_index": null
    }
  ]
}
