
     RDKit          2D

  0  0  0  0  0  0  0  0  0  0999 V3000
M  V30 BEGIN CTAB
M  V30 COUNTS 42 44 2 0 0
M  V30 BEGIN ATOM
M  V30 1 H 3.897141 -0.228036 0.000000 0
M  V30 2 H 7.464985 0.271964 0.000000 0
M  V30 3 C 4.763137 0.272064 0.000000 0
M  V30 4 C 5.629133 -0.228036 0.000000 0
M  V30 5 C 5.629133 -1.227968 0.000000 0
M  V30 6 C 6.495365 -1.728010 0.000000 0
M  V30 7 C 7.361252 -1.227919 0.000000 0
M  V30 8 O 7.361252 -0.227988 0.000000 0
M  V30 9 O 8.227311 -1.727861 0.000000 0
M  V30 10 C 9.093098 -1.227944 0.000000 0
M  V30 11 C 9.959330 -1.727985 0.000000 0
M  V30 12 C 10.825317 -1.227722 0.000000 0
M  V30 13 C 10.825317 -0.227790 0.000000 0
M  V30 14 O 11.691203 0.272300 0.000000 0
M  V30 15 C 12.557263 -0.227641 0.000000 0
M  V30 16 C 13.423322 0.272349 0.000000 0
M  V30 17 C 14.289382 -0.227593 0.000000 0
M  V30 18 C 15.155268 0.272498 0.000000 0
M  V30 19 C 9.959257 0.272152 0.000000 0
M  V30 20 C 9.093371 -0.227939 0.000000 0
M  V30 21 C 6.495365 -2.727942 0.000000 0
M  V30 22 C 5.629379 -3.228205 0.000000 0
M  V30 23 C 4.763146 -2.728163 0.000000 0
M  V30 24 C 3.897360 -3.228081 0.000000 0
M  V30 25 O 3.031301 -2.728139 0.000000 0
M  V30 26 O 3.897360 -4.228013 0.000000 0
M  V30 27 C 3.031474 -4.728103 0.000000 0
M  V30 28 C 2.165414 -4.228161 0.000000 0
M  V30 29 C 1.299528 -4.728252 0.000000 0
M  V30 30 C 1.299255 -5.728257 0.000000 0
M  V30 31 O 0.433468 -6.228174 0.000000 0
M  V30 32 C 0.433642 -7.228206 0.000000 0
M  V30 33 C -0.432418 -7.728196 0.000000 0
M  V30 34 C -0.432418 -8.728128 0.000000 0
M  V30 35 C -1.298304 -9.228218 0.000000 0
M  V30 36 C 2.165487 -6.228298 0.000000 0
M  V30 37 C 3.031474 -5.728035 0.000000 0
M  V30 38 C 4.763246 -1.728058 0.000000 0
M  V30 39 Si 6.495158 0.271964 0.000000 0 VAL=4
M  V30 40 C 6.495158 -0.727961 0.000000 0
M  V30 41 C 6.495158 1.271988 0.000000 0
M  V30 42 O 6.980072 -0.301402 0.000000 0
M  V30 END ATOM
M  V30 BEGIN BOND
M  V30 1 1 3 4
M  V30 2 1 4 5
M  V30 3 2 5 6
M  V30 4 1 6 7
M  V30 5 2 7 8
M  V30 6 1 7 9
M  V30 7 1 9 10
M  V30 8 2 10 11
M  V30 9 1 11 12
M  V30 10 2 12 13
M  V30 11 1 13 14
M  V30 12 1 14 15
M  V30 13 1 15 16
M  V30 14 1 16 17
M  V30 15 1 17 18
M  V30 16 1 13 19
M  V30 17 2 19 20
M  V30 18 1 6 21
M  V30 19 2 21 22
M  V30 20 1 22 23
M  V30 21 1 23 24
M  V30 22 2 24 25
M  V30 23 1 24 26
M  V30 24 1 26 27
M  V30 25 2 27 28
M  V30 26 1 28 29
M  V30 27 2 29 30
M  V30 28 1 30 31
M  V30 29 1 31 32
M  V30 30 1 32 33
M  V30 31 1 33 34
M  V30 32 1 34 35
M  V30 33 1 30 36
M  V30 34 2 36 37
M  V30 35 2 23 38
M  V30 36 1 38 5
M  V30 37 1 20 10
M  V30 38 1 37 27
M  V30 39 1 1 3
M  V30 40 1 39 40
M  V30 41 1 39 41
M  V30 42 1 39 42
M  V30 43 1 4 39
M  V30 44 1 2 42
M  V30 END BOND
M  V30 BEGIN SGROUP
M  V30 1 SRU 0 ATOMS=(4 2 4 39 42) CBONDS=(2 43 44) -
M  V30 BRKXYZ=(9 6.0621 -0.4781 0 6.0621 0.5220 0 0 0 0) BRKXYZ=(9 7.2225 -0.5-
M  V30 147 0 7.2225 0.4853 0 0 0 0)
M  V30 2 SRU 0 ATOMS=(4 1 3 4 39) CBONDS=(2 39 43) -
M  V30 BRKXYZ=(9 4.3301 0.5221 0 4.3301 -0.4781 0 0 0 0) BRKXYZ=(9 6.0621 0.52-
M  V30 21 0 6.0621 -0.4781 0 0 0 0)
M  V30 END SGROUP
M  V30 END CTAB
M  END
>  <BIGSMILES_BRACKET_RECORDS_JSON>
{
  "records": [
    {
      "id": 0,
      "bracket_kind": "backbone",
      "pairing_id": "F2/fragments[0]",
      "group_id": "<1:3",
      "ru_midpoint": [
        6.165920285750269,
        -0.05138828005932522
      ],
      "bond_midpoint": [
        6.062145563430901,
        0.021963782656783726
      ],
      "orientation_vector": [
        0.0,
        -1.0
      ],
      "half_bracket_size": 0.5000159997440081,
      "bond": [
        3,
        38
      ],
      "fragment": "F2",
      "backbone": true,
      "suspended_anchor_atom": null,
      "suspended_reason": null,
      "source_label": "F2/fragments[0]",
      "marker_id": "0",
      "side": "left",
      "connection_group": "<1",
      "marker_type_index": 3
    },
    {
      "id": 1,
      "bracket_kind": "backbone",
      "pairing_id": "F2/fragments[0]",
      "group_id": ">1:4",
      "ru_midpoint": [
        6.165920285750269,
        -0.05138828005932522
      ],
      "bond_midpoint": [
        7.222528349638029,
        -0.014719331121890555
      ],
      "orientation_vector": [
        0.0,
        -1.0
      ],
      "half_bracket_size": 0.5000159997440081,
      "bond": [
        1,
        41
      ],
      "fragment": "F2",
      "backbone": true,
      "suspended_anchor_atom": null,
      "suspended_reason": null,
      "source_label": "F2/fragments[0]",
      "marker_id": "5",
      "side": "right",
      "connection_group": ">1",
      "marker_type_index": 4
    },
    {
      "id": 2,
      "bracket_kind": "backbone",
      "pairing_id": "F1/fragments[0]",
      "group_id": "$a:2",
      "ru_midpoint": [
        5.1961252214873195,
        0.022005861413293193
      ],
      "bond_midpoint": [
        4.330138793984711,
        0.022013862631796055
      ],
      "orientation_vector": [
        0.0,
        1.0
      ],
      "half_bracket_size": 0.5001001599500252,
      "bond": [
        0,
        2
      ],
      "fragment": "F1",
      "backbone": true,
      "suspended_anchor_atom": null,
      "suspended_reason": null,
      "source_label": "F1/fragments[0]",
      "marker_id": "0",
      "side": "left",
      "connection_group": "$a",
      "marker_type_index": 2
    },
    {
      "id": 3,
      "bracket_kind": "backbone",
      "pairing_id": "F1/fragments[0]",
      "group_id": "$a:2",
      "ru_midpoint": [
        5.1961252214873195,
        0.022005861413293193
      ],
      "bond_midpoint": [
        6.062145563430901,
        0.021963782656783726
      ],
      "orientation_vector": [
        0.0,
        1.0
      ],
      "half_bracket_size": 0.5001001599500252,
      "bond": [
        3,
        38
      ],
      "fragment": "F1",
      "backbone": true,
      "suspended_anchor_atom": null,
      "suspended_reason": null,
      "source_label": "F1/fragments[0]",
      "marker_id": "37",
      "side": "right",
      "connection_group": "$a",
      "marker_type_index": 2
    }
  ]
}
