
     RDKit          2D

  0  0  0  0  0  0  0  0  0  0999 V3000
M  V30 BEGIN CTAB
M  V30 COUNTS 22 22 2 0 0
M  V30 BEGIN ATOM
M  V30 1 C 0.690400 -1.701328 0.000000 0
M  V30 2 C 1.556443 -1.201355 0.000000 0
M  V30 3 C 2.422501 -1.701328 0.000000 0
M  V30 4 C 2.422501 -2.701330 0.000000 0
M  V30 5 H 6.752709 -1.201436 0.000000 0
M  V30 6 C 3.288594 -1.201355 0.000000 0
M  V30 7 C 4.154553 -1.701362 0.000000 0
M  V30 8 C 4.154553 -2.701364 0.000000 0
M  V30 9 C 3.288352 -3.201297 0.000000 0
M  V30 10 C 3.288552 -4.201299 0.000000 0
M  V30 11 C 4.154353 -4.701368 0.000000 0
M  V30 12 C 5.020555 -4.201435 0.000000 0
M  V30 13 C 5.020355 -3.201433 0.000000 0
M  V30 14 C 5.020615 -1.201424 0.000000 0
M  V30 15 C 5.886619 -1.701324 0.000000 0
M  V30 16 C 5.886619 -2.701249 0.000000 0
M  V30 17 O 6.752512 -3.201343 0.000000 0
M  V30 18 C 6.752512 -4.201268 0.000000 0
M  V30 19 C 7.618404 -4.701362 0.000000 0
M  V30 20 C 7.618404 -5.701286 0.000000 0
M  V30 21 O 5.020553 -3.201180 0.000000 0
M  V30 22 C 5.886619 -0.701392 0.000000 0
M  V30 END ATOM
M  V30 BEGIN BOND
M  V30 1 1 1 2
M  V30 2 1 2 3
M  V30 3 1 3 4
M  V30 4 1 6 7
M  V30 5 1 7 8
M  V30 6 2 8 9
M  V30 7 1 9 10
M  V30 8 2 10 11
M  V30 9 1 11 12
M  V30 10 2 12 13
M  V30 11 1 13 8
M  V30 12 1 14 15
M  V30 13 1 15 16
M  V30 14 1 16 17
M  V30 15 1 17 18
M  V30 16 1 18 19
M  V30 17 1 19 20
M  V30 18 2 16 21
M  V30 19 1 15 22
M  V30 20 1 7 14
M  V30 21 1 5 15
M  V30 22 1 3 6
M  V30 END BOND
M  V30 BEGIN SGROUP
M  V30 1 SRU 0 ATOMS=(4 5 7 14 15) CBONDS=(2 20 21) -
M  V30 BRKXYZ=(9 4.5876 -0.9515 0 4.5876 -1.9513 0 0 0 0) BRKXYZ=(9 6.3197 -0.-
M  V30 9515 0 6.3197 -1.9513 0 0 0 0)
M  V30 2 SRU 0 ATOMS=(4 3 6 7 14) CBONDS=(2 20 22) -
M  V30 BRKXYZ=(9 2.8555 -1.9513 0 2.8555 -0.9513 0 0 0 0) BRKXYZ=(9 4.5876 -0.-
M  V30 9514 0 4.5876 -1.9514 0 0 0 0)
M  V30 END SGROUP
M  V30 END CTAB
M  END
>  <BIGSMILES_BRACKET_RECORDS_JSON>
{
  "records": [
    {
      "id": 0,
      "bracket_kind": "backbone",
      "pairing_id": "F3/fragments[0]",
      "group_id": "$a:2",
      "ru_midpoint": [
        5.453645798540553,
        -1.4513740486588749
      ],
      "bond_midpoint": [
        4.587584124348112,
        -1.4513928470253736
      ],
      "orientation_vector": [
        0.0,
        1.0
      ],
      "half_bracket_size": 0.4999001600153621,
      "bond": [
        6,
        13
      ],
      "fragment": "F3",
      "backbone": true,
      "suspended_anchor_atom": null,
      "suspended_reason": null,
      "source_label": "F3/fragments[0]",
      "marker_id": "0",
      "side": "left",
      "connection_group": "$a",
      "marker_type_index": 2
    },
    {
      "id": 1,
      "bracket_kind": "backbone",
      "pairing_id": "F3/fragments[0]",
      "group_id": "$a:2",
      "ru_midpoint": [
        5.453645798540553,
        -1.4513740486588749
      ],
      "bond_midpoint": [
        6.319664228842301,
        -1.4513802121998596
      ],
      "orientation_vector": [
        0.0,
        1.0
      ],
      "half_bracket_size": 0.4999001600153621,
      "bond": [
        4,
        14
      ],
      "fragment": "F3",
      "backbone": true,
      "suspended_anchor_atom": null,
      "suspended_reason": null,
      "source_label": "F3/fragments[0]",
      "marker_id": "10",
      "side": "right",
      "connection_group": "$a",
      "marker_type_index": 2
    },
    {
      "id": 2,
      "bracket_kind": "backbone",
      "pairing_id": "F2/fragments[0]",
      "group_id": "$a:2",
      "ru_midpoint": [
        3.721548432152597,
        -1.4513581959449378
      ],
      "bond_midpoint": [
        2.855547436819105,
        -1.4513411961029383
      ],
      "orientation_vector": [
        0.0,
        -1.0
      ],
      "half_bracket_size": 0.5000070589092322,
      "bond": [
        2,
        5
      ],
      "fragment": "F2",
      "backbone": true,
      "suspended_anchor_atom": null,
      "suspended_reason": null,
      "source_label": "F2/fragments[0]",
      "marker_id": "0",
      "side": "left",
      "connection_group": "$a",
      "marker_type_index": 2
    },
    {
      "id": 3,
      "bracket_kind": "backbone",
      "pairing_id": "F2/fragments[0]",
      "group_id": "$a:2",
      "ru_midpoint": [
        3.721548432152597,
        -1.4513581959449378
      ],
      "bond_midpoint": [
        4.587584124348112,
        -1.4513928470253736
      ],
      "orientation_vector": [
        0.0,
        1.0
      ],
      "half_bracket_size": 0.5000070589092322,
      "bond": [
        6,
        13
      ],
      "fragment": "F2",
      "backbone": true,
      "suspended_anchor_atom": null,
      "suspended_reason": null,
      "source_label": "F2/fragments[0]",
      "marker_id": "9",
      "side": "right",
      "connection_group": "$a",
      "marker_type_index": 2
    }
  ]
}
