
     RDKit          2D

  0  0  0  0  0  0  0  0  0  0999 V3000
M  V30 BEGIN CTAB
M  V30 COUNTS 19 18 5 0 0
M  V30 BEGIN ATOM
M  V30 1 H 1.299160 0.247728 0.000000 0
M  V30 2 H 10.825320 0.747816 0.000000 0
M  V30 3 C 2.165164 0.747628 0.000000 0
M  V30 4 C 3.031169 0.247728 0.000000 0
M  V30 5 C 3.897165 0.747628 0.000000 0
M  V30 6 C 3.897165 1.747629 0.000000 0
M  V30 7 C 4.763169 0.247728 0.000000 0
M  V30 8 C 5.629252 0.747628 0.000000 0
M  V30 9 C 6.495248 0.247728 0.000000 0
M  V30 10 C 6.495248 -0.752204 0.000000 0
M  V30 11 C 5.629362 -1.252294 0.000000 0
M  V30 12 C 7.361308 -1.252145 0.000000 0
M  V30 13 C 7.361331 0.747628 0.000000 0
M  V30 14 C 8.227336 0.247728 0.000000 0
M  V30 15 C 8.227336 1.247653 0.000000 0
M  V30 16 C 8.227336 -0.752196 0.000000 0
M  V30 17 C 7.361443 -1.252290 0.000000 0
M  V30 18 C 9.093311 0.747816 0.000000 0
M  V30 19 C 9.959315 0.247716 0.000000 0
M  V30 END ATOM
M  V30 BEGIN BOND
M  V30 1 1 3 4
M  V30 2 1 4 5
M  V30 3 1 5 6
M  V30 4 1 5 7
M  V30 5 1 8 9
M  V30 6 1 9 10
M  V30 7 1 10 11
M  V30 8 1 10 12
M  V30 9 1 7 8
M  V30 10 1 13 14
M  V30 11 1 14 15
M  V30 12 1 14 16
M  V30 13 1 16 17
M  V30 14 1 9 13
M  V30 15 1 1 3
M  V30 16 1 18 19
M  V30 17 1 14 18
M  V30 18 1 2 19
M  V30 END BOND
M  V30 BEGIN SGROUP
M  V30 1 SRU 0 ATOMS=(4 2 14 18 19) CBONDS=(2 17 18) -
M  V30 BRKXYZ=(9 8.6603 0.9979 0 8.6603 -0.0023 0 0 0 0) BRKXYZ=(9 10.3923 0.9-
M  V30 979 0 10.3923 -0.0023 0 0 0 0)
M  V30 2 SRU 0 ATOMS=(4 1 3 7 8) CBONDS=(2 9 15) -
M  V30 BRKXYZ=(9 1.7322 -0.0022 0 1.7322 0.9976 0 0 0 0) BRKXYZ=(9 5.1962 -0.0-
M  V30 022 0 5.1962 0.9976 0 0 0 0)
M  V30 3 SRU 0 ATOMS=(4 7 8 9 13) CBONDS=(2 9 14) -
M  V30 BRKXYZ=(9 5.1962 0.9976 0 5.1962 -0.0022 0 0 0 0) BRKXYZ=(9 6.9283 0.99-
M  V30 76 0 6.9283 -0.0022 0 0 0 0)
M  V30 4 SRU 0 ATOMS=(4 9 13 14 18) CBONDS=(2 14 17) -
M  V30 BRKXYZ=(9 6.9283 0.9976 0 6.9283 -0.0022 0 0 0 0) BRKXYZ=(9 8.6603 0.99-
M  V30 77 0 8.6603 -0.0021 0 0 0 0)
M  V30 5 SRU 0 ATOMS=(4 1 3 14 18) CBONDS=(2 15 17) -
M  V30 BRKXYZ=(9 1.7322 -2.5022 0 1.7322 3.4976 0 0 0 0) BRKXYZ=(9 8.6603 -2.5-
M  V30 022 0 8.6603 3.4977 0 0 0 0)
M  V30 END SGROUP
M  V30 END CTAB
M  END
>  <BIGSMILES_BRACKET_RECORDS_JSON>
{
  "records": [
    {
      "id": 0,
      "bracket_kind": "backbone",
      "pairing_id": "F2/fragments[0]",
      "group_id": "$a:2",
      "ru_midpoint": [
        9.526327692001791,
        0.49777224198655107
      ],
      "bond_midpoint": [
        8.660323171218002,
        0.49777224198655107
      ],
      "orientation_vector": [
        0.0,
        1.0
      ],
      "half_bracket_size": 0.5001001599500253,
      "bond": [
        13,
        17
      ],
      "fragment": "F2",
      "backbone": true,
      "suspended_anchor_atom": null,
      "suspended_reason": null,
      "source_label": "F2/fragments[0]",
      "marker_id": "0",
      "side": "left",
      "connection_group": "$a",
      "marker_type_index": 2
    },
    {
      "id": 1,
      "bracket_kind": "backbone",
      "pairing_id": "F2/fragments[0]",
      "group_id": "$a:2",
      "ru_midpoint": [
        9.526327692001791,
        0.49777224198655107
      ],
      "bond_midpoint": [
        10.392317297575394,
        0.4977660759796589
      ],
      "orientation_vector": [
        0.0,
        1.0
      ],
      "half_bracket_size": 0.5001001599500253,
      "bond": [
        1,
        18
      ],
      "fragment": "F2",
      "backbone": true,
      "suspended_anchor_atom": null,
      "suspended_reason": null,
      "source_label": "F2/fragments[0]",
      "marker_id": "3",
      "side": "right",
      "connection_group": "$a",
      "marker_type_index": 2
    },
    {
      "id": 2,
      "bracket_kind": "backbone",
      "pairing_id": "F1/fragments[0]",
      "group_id": "$a:2",
      "ru_midpoint": [
        3.464195209158617,
        0.4976972063926106
      ],
      "bond_midpoint": [
        1.7321620782080833,
        0.49767840802611163
      ],
      "orientation_vector": [
        0.0,
        -1.0
      ],
      "half_bracket_size": 0.4999001600153621,
      "bond": [
        0,
        2
      ],
      "fragment": "F1",
      "backbone": true,
      "suspended_anchor_atom": null,
      "suspended_reason": null,
      "source_label": "F1/fragments[0]",
      "marker_id": "0",
      "side": "left",
      "connection_group": "$a",
      "marker_type_index": 2
    },
    {
      "id": 3,
      "bracket_kind": "backbone",
      "pairing_id": "F1/fragments[0]",
      "group_id": "$a:2",
      "ru_midpoint": [
        3.464195209158617,
        0.4976972063926106
      ],
      "bond_midpoint": [
        5.196210702086172,
        0.49767840802611163
      ],
      "orientation_vector": [
        0.0,
        -1.0
      ],
      "half_bracket_size": 0.4999001600153621,
      "bond": [
        6,
        7
      ],
      "fragment": "F1",
      "backbone": true,
      "suspended_anchor_atom": null,
      "suspended_reason": null,
      "source_label": "F1/fragments[0]",
      "marker_id": "6",
      "side": "right",
      "connection_group": "$a",
      "marker_type_index": 2
    },
    {
      "id": 4,
      "bracket_kind": "backbone",
      "pairing_id": "F1/fragments[1]",
      "group_id": "$a:2",
      "ru_midpoint": [
        6.062270087090341,
        0.49767840802611163
      ],
      "bond_midpoint": [
        5.196210702086172,
        0.49767840802611163
      ],
      "orientation_vector": [
        0.0,
        1.0
      ],
      "half_bracket_size": 0.4999001600153621,
      "bond": [
        6,
        7
      ],
      "fragment": "F1",
      "backbone": true,
      "suspended_anchor_atom": null,
      "suspended_reason": null,
      "source_label": "F1/fragments[1]",
      "marker_id": "0",
      "side": "left",
      "connection_group": "$a",
      "marker_type_index": 2
    },
    {
      "id": 5,
      "bracket_kind": "backbone",
      "pairing_id": "F1/fragments[1]",
      "group_id": "$a:2",
      "ru_midpoint": [
        6.062270087090341,
        0.49767840802611163
      ],
      "bond_midpoint": [
        6.928289947538485,
        0.49767840802611163
      ],
      "orientation_vector": [
        0.0,
        1.0
      ],
      "half_bracket_size": 0.4999001600153621,
      "bond": [
        8,
        12
      ],
      "fragment": "F1",
      "backbone": true,
      "suspended_anchor_atom": null,
      "suspended_reason": null,
      "source_label": "F1/fragments[1]",
      "marker_id": "6",
      "side": "right",
      "connection_group": "$a",
      "marker_type_index": 2
    },
    {
      "id": 6,
      "bracket_kind": "backbone",
      "pairing_id": "F1/fragments[2]",
      "group_id": "$a:2",
      "ru_midpoint": [
        7.794364591282042,
        0.49767840802611163
      ],
      "bond_midpoint": [
        6.928289947538485,
        0.49767840802611163
      ],
      "orientation_vector": [
        0.0,
        1.0
      ],
      "half_bracket_size": 0.4999001600153621,
      "bond": [
        8,
        12
      ],
      "fragment": "F1",
      "backbone": true,
      "suspended_anchor_atom": null,
      "suspended_reason": null,
      "source_label": "F1/fragments[2]",
      "marker_id": "0",
      "side": "left",
      "connection_group": "$a",
      "marker_type_index": 2
    },
    {
      "id": 7,
      "bracket_kind": "backbone",
      "pairing_id": "F1/fragments[2]",
      "group_id": "$a:2",
      "ru_midpoint": [
        7.794364591282042,
        0.49767840802611163
      ],
      "bond_midpoint": [
        8.660323171218002,
        0.49777224198655107
      ],
      "orientation_vector": [
        0.0,
        1.0
      ],
      "half_bracket_size": 0.4999001600153621,
      "bond": [
        13,
        17
      ],
      "fragment": "F1",
      "backbone": true,
      "suspended_anchor_atom": null,
      "suspended_reason": null,
      "source_label": "F1/fragments[2]",
      "marker_id": "6",
      "side": "right",
      "connection_group": "$a",
      "marker_type_index": 2
    },
    {
      "id": 8,
      "bracket_kind": "backbone",
      "pairing_id": "F1/connected",
      "group_id": "$overall",
      "ru_midpoint": [
        5.196274357575836,
        0.4976972063926106
      ],
      "bond_midpoint": [
        1.7321620782080833,
        0.49767840802611163
      ],
      "orientation_vector": [
        0.0,
        -1.0
      ],
      "half_bracket_size": 2.9999227350143496,
      "bond": [
        0,
        2
      ],
      "fragment": "F1",
      "backbone": true,
      "suspended_anchor_atom": null,
      "suspended_reason": null,
      "source_label": "F1/connected",
      "marker_id": "connected-overall-left",
      "side": "left",
      "connection_group": "$overall",
      "marker_type_index": null
    },
    {
      "id": 9,
      "bracket_kind": "backbone",
      "pairing_id": "F1/connected",
      "group_id": "$overall",
      "ru_midpoint": [
        5.196274357575836,
        0.4976972063926106
      ],
      "bond_midpoint": [
        8.660323171218002,
        0.49777224198655107
      ],
      "orientation_vector": [
        0.0,
        -1.0
      ],
      "half_bracket_size": 2.9999227350143496,
      "bond": [
        13,
        17
      ],
      "fragment": "F1",
      "backbone": true,
      "suspended_anchor_atom": null,
      "suspended_reason": null,
      "source_label": "F1/connected",
      "marker_id": "connected-overall-right",
      "side": "right",
      "connection_group": "$overall",
      "marker_type_index": null
    }
  ]
}
