
     RDKit          2D

  0  0  0  0  0  0  0  0  0  0999 V3000
M  V30 BEGIN CTAB
M  V30 COUNTS 17 16 2 0 0
M  V30 BEGIN ATOM
M  V30 1 C -5.629070 -0.278922 0.000000 0
M  V30 2 O -4.763016 -0.778922 0.000000 0
M  V30 3 C -3.897070 -0.278922 0.000000 0
M  V30 4 C -3.031131 -0.778922 0.000000 0
M  V30 5 O -2.165185 -0.278922 0.000000 0
M  V30 6 C -1.299246 -0.778922 0.000000 0
M  V30 7 C -0.433300 -0.278922 0.000000 0
M  V30 8 O 0.432639 -0.778922 0.000000 0
M  V30 9 H 6.494378 -0.278800 0.000000 0
M  V30 10 C 1.298616 -0.278838 0.000000 0
M  V30 11 C 2.164612 -0.778938 0.000000 0
M  V30 12 O 3.030501 -0.278838 0.000000 0
M  V30 13 C 3.896517 -0.778854 0.000000 0
M  V30 14 C 3.896517 -1.778786 0.000000 0
M  V30 15 C 4.762403 -2.278876 0.000000 0
M  V30 16 C 4.762446 -0.278838 0.000000 0
M  V30 17 O 5.628384 -0.778854 0.000000 0
M  V30 END ATOM
M  V30 BEGIN BOND
M  V30 1 1 1 2
M  V30 2 1 2 3
M  V30 3 1 3 4
M  V30 4 1 4 5
M  V30 5 1 5 6
M  V30 6 1 6 7
M  V30 7 1 7 8
M  V30 8 1 10 11
M  V30 9 1 11 12
M  V30 10 1 8 10
M  V30 11 1 13 14
M  V30 12 1 14 15
M  V30 13 1 13 16
M  V30 14 1 16 17
M  V30 15 1 12 13
M  V30 16 1 9 17
M  V30 END BOND
M  V30 BEGIN SGROUP
M  V30 1 SRU 0 ATOMS=(4 9 12 13 17) CBONDS=(2 15 16) -
M  V30 BRKXYZ=(9 3.4635 -0.0288 0 3.4635 -1.0289 0 0 0 0) BRKXYZ=(9 6.0614 -0.-
M  V30 0288 0 6.0614 -1.0288 0 0 0 0)
M  V30 2 SRU 0 ATOMS=(4 8 10 12 13) CBONDS=(2 10 15) -
M  V30 BRKXYZ=(9 0.8656 -1.0290 0 0.8656 -0.0288 0 0 0 0) BRKXYZ=(9 3.4635 -1.-
M  V30 0289 0 3.4635 -0.0287 0 0 0 0)
M  V30 END SGROUP
M  V30 END CTAB
M  END
>  <BIGSMILES_BRACKET_RECORDS_JSON>
{
  "records": [
    {
      "id": 0,
      "bracket_kind": "backbone",
      "pairing_id": "F2/fragments[0]",
      "group_id": "<1:3",
      "ru_midpoint": [
        4.76243201732749,
        -0.4788442094038301
      ],
      "bond_midpoint": [
        3.463508739486522,
        -0.5288458891906263
      ],
      "orientation_vector": [
        0.0,
        1.0
      ],
      "half_bracket_size": 0.5000159978427487,
      "bond": [
        11,
        12
      ],
      "fragment": "F2",
      "backbone": true,
      "suspended_anchor_atom": null,
      "suspended_reason": null,
      "source_label": "F2/fragments[0]",
      "marker_id": "0",
      "side": "left",
      "connection_group": "<1",
      "marker_type_index": 3
    },
    {
      "id": 1,
      "bracket_kind": "backbone",
      "pairing_id": "F2/fragments[0]",
      "group_id": ">1:4",
      "ru_midpoint": [
        4.76243201732749,
        -0.4788442094038301
      ],
      "bond_midpoint": [
        6.061380906130432,
        -0.5288270064656122
      ],
      "orientation_vector": [
        0.0,
        1.0
      ],
      "half_bracket_size": 0.5000159978427487,
      "bond": [
        8,
        16
      ],
      "fragment": "F2",
      "backbone": true,
      "suspended_anchor_atom": null,
      "suspended_reason": null,
      "source_label": "F2/fragments[0]",
      "marker_id": "6",
      "side": "right",
      "connection_group": ">1",
      "marker_type_index": 4
    },
    {
      "id": 2,
      "bracket_kind": "backbone",
      "pairing_id": "F1/fragments[0]",
      "group_id": "<1:3",
      "ru_midpoint": [
        2.1645441053827845,
        -0.5788980662417881
      ],
      "bond_midpoint": [
        0.8656272810978372,
        -0.5288800490282829
      ],
      "orientation_vector": [
        0.0,
        -1.0
      ],
      "half_bracket_size": 0.5001001599500253,
      "bond": [
        7,
        9
      ],
      "fragment": "F1",
      "backbone": true,
      "suspended_anchor_atom": null,
      "suspended_reason": null,
      "source_label": "F1/fragments[0]",
      "marker_id": "0",
      "side": "left",
      "connection_group": "<1",
      "marker_type_index": 3
    },
    {
      "id": 3,
      "bracket_kind": "backbone",
      "pairing_id": "F1/fragments[0]",
      "group_id": ">1:4",
      "ru_midpoint": [
        2.1645441053827845,
        -0.5788980662417881
      ],
      "bond_midpoint": [
        3.463508739486522,
        -0.5288458891906263
      ],
      "orientation_vector": [
        0.0,
        -1.0
      ],
      "half_bracket_size": 0.5001001599500253,
      "bond": [
        11,
        12
      ],
      "fragment": "F1",
      "backbone": true,
      "suspended_anchor_atom": null,
      "suspended_reason": null,
      "source_label": "F1/fragments[0]",
      "marker_id": "4",
      "side": "right",
      "connection_group": ">1",
      "marker_type_index": 4
    }
  ]
}
