
     RDKit          2D

  0  0  0  0  0  0  0  0  0  0999 V3000
M  V30 BEGIN CTAB
M  V30 COUNTS 25 24 7 0 0
M  V30 BEGIN ATOM
M  V30 1 H -0.432971 0.247778 0.000000 0
M  V30 2 H 12.557363 0.747716 0.000000 0
M  V30 3 C 0.433034 0.747679 0.000000 0
M  V30 4 C 1.299038 0.247778 0.000000 0
M  V30 5 C 2.165034 0.747679 0.000000 0
M  V30 6 C 2.165034 1.747679 0.000000 0
M  V30 7 C 3.031039 0.247778 0.000000 0
M  V30 8 C 3.897122 0.747679 0.000000 0
M  V30 9 C 4.763118 0.247778 0.000000 0
M  V30 10 C 4.763118 -0.752153 0.000000 0
M  V30 11 C 3.897232 -1.252244 0.000000 0
M  V30 12 C 5.629177 -1.252095 0.000000 0
M  V30 13 C 5.629201 0.747679 0.000000 0
M  V30 14 C 6.495205 0.247778 0.000000 0
M  V30 15 C 6.495205 1.247703 0.000000 0
M  V30 16 C 6.495205 -0.752146 0.000000 0
M  V30 17 C 5.629313 -1.252240 0.000000 0
M  V30 18 C 7.361267 0.747716 0.000000 0
M  V30 19 C 8.227271 0.247816 0.000000 0
M  V30 20 C 8.227271 -0.752209 0.000000 0
M  V30 21 C 7.361119 -1.252053 0.000000 0
M  V30 22 C 9.093354 0.747716 0.000000 0
M  V30 23 C 9.959358 0.247816 0.000000 0
M  V30 24 C 10.825355 0.747716 0.000000 0
M  V30 25 C 11.691359 0.247816 0.000000 0
M  V30 END ATOM
M  V30 BEGIN BOND
M  V30 1 1 3 4
M  V30 2 1 4 5
M  V30 3 1 5 6
M  V30 4 1 5 7
M  V30 5 1 8 9
M  V30 6 1 9 10
M  V30 7 1 10 11
M  V30 8 1 10 12
M  V30 9 1 7 8
M  V30 10 1 13 14
M  V30 11 1 14 15
M  V30 12 1 14 16
M  V30 13 1 16 17
M  V30 14 1 9 13
M  V30 15 1 1 3
M  V30 16 1 18 19
M  V30 17 1 19 20
M  V30 18 1 20 21
M  V30 19 1 22 23
M  V30 20 1 23 24
M  V30 21 1 24 25
M  V30 22 1 19 22
M  V30 23 1 14 18
M  V30 24 1 2 25
M  V30 END BOND
M  V30 BEGIN SGROUP
M  V30 1 SRU 0 ATOMS=(4 14 18 19 22) CBONDS=(2 22 23) -
M  V30 BRKXYZ=(9 6.9282 0.9976 0 6.9282 -0.0022 0 0 0 0) BRKXYZ=(9 8.6603 0.99-
M  V30 77 0 8.6603 -0.0021 0 0 0 0)
M  V30 2 SRU 0 ATOMS=(4 2 19 22 25) CBONDS=(2 22 24) -
M  V30 BRKXYZ=(9 8.6603 0.9977 0 8.6603 -0.0021 0 0 0 0) BRKXYZ=(9 12.1244 0.9-
M  V30 977 0 12.1244 -0.0021 0 0 0 0)
M  V30 3 SRU 0 ATOMS=(4 2 14 18 25) CBONDS=(2 23 24) -
M  V30 BRKXYZ=(9 6.9282 2.4975 0 6.9282 -1.5020 0 0 0 0) BRKXYZ=(9 12.1244 2.4-
M  V30 975 0 12.1244 -1.5020 0 0 0 0)
M  V30 4 SRU 0 ATOMS=(4 1 3 7 8) CBONDS=(2 9 15) -
M  V30 BRKXYZ=(9 0.0000 -0.0022 0 0.0000 0.9976 0 0 0 0) BRKXYZ=(9 3.4641 -0.0-
M  V30 022 0 3.4641 0.9976 0 0 0 0)
M  V30 5 SRU 0 ATOMS=(4 7 8 9 13) CBONDS=(2 9 14) -
M  V30 BRKXYZ=(9 3.4641 0.9976 0 3.4641 -0.0022 0 0 0 0) BRKXYZ=(9 5.1962 0.99-
M  V30 76 0 5.1962 -0.0022 0 0 0 0)
M  V30 6 SRU 0 ATOMS=(4 9 13 14 18) CBONDS=(2 14 23) -
M  V30 BRKXYZ=(9 5.1962 0.9976 0 5.1962 -0.0022 0 0 0 0) BRKXYZ=(9 6.9282 0.99-
M  V30 76 0 6.9282 -0.0022 0 0 0 0)
M  V30 7 SRU 0 ATOMS=(4 1 3 14 18) CBONDS=(2 15 23) -
M  V30 BRKXYZ=(9 0.0000 -2.5022 0 0.0000 3.4977 0 0 0 0) BRKXYZ=(9 6.9282 -2.5-
M  V30 022 0 6.9282 3.4977 0 0 0 0)
M  V30 END SGROUP
M  V30 END CTAB
M  END
>  <BIGSMILES_BRACKET_RECORDS_JSON>
{
  "records": [
    {
      "id": 0,
      "bracket_kind": "backbone",
      "pairing_id": "F2/fragments[0]",
      "group_id": "$a:2",
      "ru_midpoint": [
        7.794290595328006,
        0.49776607597965866
      ],
      "bond_midpoint": [
        6.928235946903774,
        0.49774727761315957
      ],
      "orientation_vector": [
        0.0,
        1.0
      ],
      "half_bracket_size": 0.49990016001536275,
      "bond": [
        13,
        17
      ],
      "fragment": "F2",
      "backbone": true,
      "suspended_anchor_atom": null,
      "suspended_reason": null,
      "source_label": "F2/fragments[0]",
      "marker_id": "0",
      "side": "left",
      "connection_group": "$a",
      "marker_type_index": 2
    },
    {
      "id": 1,
      "bracket_kind": "backbone",
      "pairing_id": "F2/fragments[0]",
      "group_id": "$a:2",
      "ru_midpoint": [
        7.794290595328006,
        0.49776607597965866
      ],
      "bond_midpoint": [
        8.66031249388172,
        0.4977660759796587
      ],
      "orientation_vector": [
        0.0,
        1.0
      ],
      "half_bracket_size": 0.49990016001536275,
      "bond": [
        18,
        21
      ],
      "fragment": "F2",
      "backbone": true,
      "suspended_anchor_atom": null,
      "suspended_reason": null,
      "source_label": "F2/fragments[0]",
      "marker_id": "5",
      "side": "right",
      "connection_group": "$a",
      "marker_type_index": 2
    },
    {
      "id": 2,
      "bracket_kind": "backbone",
      "pairing_id": "F2/fragments[1]",
      "group_id": "$a:2",
      "ru_midpoint": [
        10.392327986809276,
        0.4977472776131601
      ],
      "bond_midpoint": [
        8.66031249388172,
        0.4977660759796587
      ],
      "orientation_vector": [
        0.0,
        1.0
      ],
      "half_bracket_size": 0.49990016001536275,
      "bond": [
        18,
        21
      ],
      "fragment": "F2",
      "backbone": true,
      "suspended_anchor_atom": null,
      "suspended_reason": null,
      "source_label": "F2/fragments[1]",
      "marker_id": "0",
      "side": "left",
      "connection_group": "$a",
      "marker_type_index": 2
    },
    {
      "id": 3,
      "bracket_kind": "backbone",
      "pairing_id": "F2/fragments[1]",
      "group_id": "$a:2",
      "ru_midpoint": [
        10.392327986809276,
        0.4977472776131601
      ],
      "bond_midpoint": [
        12.12436111775981,
        0.4977660759796591
      ],
      "orientation_vector": [
        0.0,
        1.0
      ],
      "half_bracket_size": 0.49990016001536275,
      "bond": [
        1,
        24
      ],
      "fragment": "F2",
      "backbone": true,
      "suspended_anchor_atom": null,
      "suspended_reason": null,
      "source_label": "F2/fragments[1]",
      "marker_id": "5",
      "side": "right",
      "connection_group": "$a",
      "marker_type_index": 2
    },
    {
      "id": 4,
      "bracket_kind": "backbone",
      "pairing_id": "F2/connected",
      "group_id": "$overall",
      "ru_midpoint": [
        9.526295141878833,
        0.4977472776131601
      ],
      "bond_midpoint": [
        6.928235946903774,
        0.49774727761315957
      ],
      "orientation_vector": [
        0.0,
        1.0
      ],
      "half_bracket_size": 1.9997688137103982,
      "bond": [
        13,
        17
      ],
      "fragment": "F2",
      "backbone": true,
      "suspended_anchor_atom": null,
      "suspended_reason": null,
      "source_label": "F2/connected",
      "marker_id": "connected-overall-left",
      "side": "left",
      "connection_group": "$overall",
      "marker_type_index": null
    },
    {
      "id": 5,
      "bracket_kind": "backbone",
      "pairing_id": "F2/connected",
      "group_id": "$overall",
      "ru_midpoint": [
        9.526295141878833,
        0.4977472776131601
      ],
      "bond_midpoint": [
        12.12436111775981,
        0.4977660759796591
      ],
      "orientation_vector": [
        0.0,
        1.0
      ],
      "half_bracket_size": 1.9997688137103982,
      "bond": [
        1,
        24
      ],
      "fragment": "F2",
      "backbone": true,
      "suspended_anchor_atom": null,
      "suspended_reason": null,
      "source_label": "F2/connected",
      "marker_id": "connected-overall-right",
      "side": "right",
      "connection_group": "$overall",
      "marker_type_index": null
    },
    {
      "id": 6,
      "bracket_kind": "backbone",
      "pairing_id": "F1/fragments[0]",
      "group_id": "$a:2",
      "ru_midpoint": [
        1.7320646615459605,
        0.4977472776131591
      ],
      "bond_midpoint": [
        3.153059542704284e-05,
        0.49772847924666025
      ],
      "orientation_vector": [
        0.0,
        -1.0
      ],
      "half_bracket_size": 0.4999001600153621,
      "bond": [
        0,
        2
      ],
      "fragment": "F1",
      "backbone": true,
      "suspended_anchor_atom": null,
      "suspended_reason": null,
      "source_label": "F1/fragments[0]",
      "marker_id": "0",
      "side": "left",
      "connection_group": "$a",
      "marker_type_index": 2
    },
    {
      "id": 7,
      "bracket_kind": "backbone",
      "pairing_id": "F1/fragments[0]",
      "group_id": "$a:2",
      "ru_midpoint": [
        1.7320646615459605,
        0.4977472776131591
      ],
      "bond_midpoint": [
        3.464080154473516,
        0.4977284792466602
      ],
      "orientation_vector": [
        0.0,
        -1.0
      ],
      "half_bracket_size": 0.4999001600153621,
      "bond": [
        6,
        7
      ],
      "fragment": "F1",
      "backbone": true,
      "suspended_anchor_atom": null,
      "suspended_reason": null,
      "source_label": "F1/fragments[0]",
      "marker_id": "6",
      "side": "right",
      "connection_group": "$a",
      "marker_type_index": 2
    },
    {
      "id": 8,
      "bracket_kind": "backbone",
      "pairing_id": "F1/fragments[1]",
      "group_id": "$a:2",
      "ru_midpoint": [
        4.330139539477685,
        0.4977284792466602
      ],
      "bond_midpoint": [
        3.464080154473516,
        0.4977284792466602
      ],
      "orientation_vector": [
        0.0,
        1.0
      ],
      "half_bracket_size": 0.4999001600153621,
      "bond": [
        6,
        7
      ],
      "fragment": "F1",
      "backbone": true,
      "suspended_anchor_atom": null,
      "suspended_reason": null,
      "source_label": "F1/fragments[1]",
      "marker_id": "0",
      "side": "left",
      "connection_group": "$a",
      "marker_type_index": 2
    },
    {
      "id": 9,
      "bracket_kind": "backbone",
      "pairing_id": "F1/fragments[1]",
      "group_id": "$a:2",
      "ru_midpoint": [
        4.330139539477685,
        0.4977284792466602
      ],
      "bond_midpoint": [
        5.196159399925829,
        0.49772847924666025
      ],
      "orientation_vector": [
        0.0,
        1.0
      ],
      "half_bracket_size": 0.4999001600153621,
      "bond": [
        8,
        12
      ],
      "fragment": "F1",
      "backbone": true,
      "suspended_anchor_atom": null,
      "suspended_reason": null,
      "source_label": "F1/fragments[1]",
      "marker_id": "6",
      "side": "right",
      "connection_group": "$a",
      "marker_type_index": 2
    },
    {
      "id": 10,
      "bracket_kind": "backbone",
      "pairing_id": "F1/fragments[2]",
      "group_id": "$a:2",
      "ru_midpoint": [
        6.062234043669386,
        0.4977284792466602
      ],
      "bond_midpoint": [
        5.196159399925829,
        0.49772847924666025
      ],
      "orientation_vector": [
        0.0,
        1.0
      ],
      "half_bracket_size": 0.4999001600153621,
      "bond": [
        8,
        12
      ],
      "fragment": "F1",
      "backbone": true,
      "suspended_anchor_atom": null,
      "suspended_reason": null,
      "source_label": "F1/fragments[2]",
      "marker_id": "0",
      "side": "left",
      "connection_group": "$a",
      "marker_type_index": 2
    },
    {
      "id": 11,
      "bracket_kind": "backbone",
      "pairing_id": "F1/fragments[2]",
      "group_id": "$a:2",
      "ru_midpoint": [
        6.062234043669386,
        0.4977284792466602
      ],
      "bond_midpoint": [
        6.928235946903774,
        0.49774727761315957
      ],
      "orientation_vector": [
        0.0,
        1.0
      ],
      "half_bracket_size": 0.4999001600153621,
      "bond": [
        13,
        17
      ],
      "fragment": "F1",
      "backbone": true,
      "suspended_anchor_atom": null,
      "suspended_reason": null,
      "source_label": "F1/fragments[2]",
      "marker_id": "6",
      "side": "right",
      "connection_group": "$a",
      "marker_type_index": 2
    },
    {
      "id": 12,
      "bracket_kind": "backbone",
      "pairing_id": "F1/connected",
      "group_id": "$overall",
      "ru_midpoint": [
        3.46414380996318,
        0.4977472776131591
      ],
      "bond_midpoint": [
        3.153059542704284e-05,
        0.49772847924666025
      ],
      "orientation_vector": [
        0.0,
        -1.0
      ],
      "half_bracket_size": 2.9999227350143496,
      "bond": [
        0,
        2
      ],
      "fragment": "F1",
      "backbone": true,
      "suspended_anchor_atom": null,
      "suspended_reason": null,
      "source_label": "F1/connected",
      "marker_id": "connected-overall-left",
      "side": "left",
      "connection_group": "$overall",
      "marker_type_index": null
    },
    {
      "id": 13,
      "bracket_kind": "backbone",
      "pairing_id": "F1/connected",
      "group_id": "$overall",
      "ru_midpoint": [
        3.46414380996318,
        0.4977472776131591
      ],
      "bond_midpoint": [
        6.928235946903774,
        0.49774727761315957
      ],
      "orientation_vector": [
        0.0,
        -1.0
      ],
      "half_bracket_size": 2.9999227350143496,
      "bond": [
        13,
        17
      ],
      "fragment": "F1",
      "backbone": true,
      "suspended_anchor_atom": null,
      "suspended_reason": null,
      "source_label": "F1/connected",
      "marker_id": "connected-overall-right",
      "side": "right",
      "connection_group": "$overall",
      "marker_type_index": null
    }
  ]
}
