
     RDKit          2D

  0  0  0  0  0  0  0  0  0  0999 V3000
M  V30 BEGIN CTAB
M  V30 COUNTS 37 38 7 0 0
M  V30 BEGIN ATOM
M  V30 1 H 0.433065 -0.252533 0.000000 0
M  V30 2 H 11.691155 0.247389 0.000000 0
M  V30 3 C 1.299024 0.247474 0.000000 0
M  V30 4 C 2.164984 -0.252533 0.000000 0
M  V30 5 C 2.164984 -1.252535 0.000000 0
M  V30 6 C 1.298782 -1.752468 0.000000 0
M  V30 7 C 1.298982 -2.752470 0.000000 0
M  V30 8 C 2.164784 -3.252539 0.000000 0
M  V30 9 C 3.030985 -2.752606 0.000000 0
M  V30 10 C 3.030785 -1.752604 0.000000 0
M  V30 11 C 3.031005 0.247474 0.000000 0
M  V30 12 C 3.896918 -0.252549 0.000000 0
M  V30 13 C 3.896918 -1.252551 0.000000 0
M  V30 14 C 3.030916 -1.752620 0.000000 0
M  V30 15 C 3.030716 -2.752621 0.000000 0
M  V30 16 C 3.896918 -3.252555 0.000000 0
M  V30 17 S 3.896918 -4.252557 0.000000 0
M  V30 18 O 2.896916 -4.252557 0.000000 0
M  V30 19 O 4.896920 -4.252557 0.000000 0
M  V30 20 O 3.896918 -5.252559 0.000000 0
M  V30 21 C 4.762919 -2.752486 0.000000 0
M  V30 22 C 4.762919 -1.752484 0.000000 0
M  V30 23 C 4.762979 0.247389 0.000000 0
M  V30 24 C 5.628983 -0.252511 0.000000 0
M  V30 25 C 6.494979 0.247389 0.000000 0
M  V30 26 C 6.494979 1.247389 0.000000 0
M  V30 27 C 7.360984 -0.252511 0.000000 0
M  V30 28 C 8.227067 0.247389 0.000000 0
M  V30 29 C 9.093063 -0.252511 0.000000 0
M  V30 30 C 9.093063 -1.252443 0.000000 0
M  V30 31 C 8.227177 -1.752534 0.000000 0
M  V30 32 C 9.959123 -1.752385 0.000000 0
M  V30 33 C 9.959146 0.247389 0.000000 0
M  V30 34 C 10.825150 -0.252511 0.000000 0
M  V30 35 C 10.825150 0.747414 0.000000 0
M  V30 36 C 10.825150 -1.252436 0.000000 0
M  V30 37 C 9.959258 -1.752530 0.000000 0
M  V30 END ATOM
M  V30 BEGIN BOND
M  V30 1 1 3 4
M  V30 2 1 4 5
M  V30 3 2 5 6
M  V30 4 1 6 7
M  V30 5 2 7 8
M  V30 6 1 8 9
M  V30 7 2 9 10
M  V30 8 1 10 5
M  V30 9 1 11 12
M  V30 10 1 12 13
M  V30 11 2 13 14
M  V30 12 1 14 15
M  V30 13 2 15 16
M  V30 14 1 16 17
M  V30 15 2 17 18
M  V30 16 2 17 19
M  V30 17 1 17 20
M  V30 18 1 16 21
M  V30 19 2 21 22
M  V30 20 1 22 13
M  V30 21 1 4 11
M  V30 22 1 1 3
M  V30 23 1 23 24
M  V30 24 1 24 25
M  V30 25 1 25 26
M  V30 26 1 25 27
M  V30 27 1 28 29
M  V30 28 1 29 30
M  V30 29 1 30 31
M  V30 30 1 30 32
M  V30 31 1 27 28
M  V30 32 1 33 34
M  V30 33 1 34 35
M  V30 34 1 34 36
M  V30 35 1 36 37
M  V30 36 1 29 33
M  V30 37 1 12 23
M  V30 38 1 2 34
M  V30 END BOND
M  V30 BEGIN SGROUP
M  V30 1 SRU 0 ATOMS=(4 12 23 27 28) CBONDS=(2 31 37) -
M  V30 BRKXYZ=(9 4.3299 -0.5025 0 4.3299 0.4973 0 0 0 0) BRKXYZ=(9 7.7940 -0.5-
M  V30 025 0 7.7940 0.4973 0 0 0 0)
M  V30 2 SRU 0 ATOMS=(4 27 28 29 33) CBONDS=(2 31 36) -
M  V30 BRKXYZ=(9 7.7940 0.4973 0 7.7940 -0.5025 0 0 0 0) BRKXYZ=(9 9.5261 0.49-
M  V30 73 0 9.5261 -0.5025 0 0 0 0)
M  V30 3 SRU 0 ATOMS=(4 2 29 33 34) CBONDS=(2 36 38) -
M  V30 BRKXYZ=(9 9.5261 0.4973 0 9.5261 -0.5025 0 0 0 0) BRKXYZ=(9 11.2582 0.4-
M  V30 973 0 11.2582 -0.5025 0 0 0 0)
M  V30 4 SRU 0 ATOMS=(4 2 12 23 34) CBONDS=(2 37 38) -
M  V30 BRKXYZ=(9 4.3299 -3.0025 0 4.3299 2.9973 0 0 0 0) BRKXYZ=(9 11.2582 -3.-
M  V30 0025 0 11.2582 2.9974 0 0 0 0)
M  V30 5 SRU 0 ATOMS=(4 1 3 4 11) CBONDS=(2 21 22) -
M  V30 BRKXYZ=(9 0.8660 0.4975 0 0.8660 -0.5026 0 0 0 0) BRKXYZ=(9 2.5980 0.49-
M  V30 75 0 2.5980 -0.5026 0 0 0 0)
M  V30 6 SRU 0 ATOMS=(4 4 11 12 23) CBONDS=(2 21 37) -
M  V30 BRKXYZ=(9 2.5980 0.4975 0 2.5980 -0.5026 0 0 0 0) BRKXYZ=(9 4.3299 0.49-
M  V30 74 0 4.3299 -0.5026 0 0 0 0)
M  V30 7 SRU 0 ATOMS=(4 1 3 12 23) CBONDS=(2 22 37) -
M  V30 BRKXYZ=(9 0.8660 5.4975 0 0.8660 -5.5026 0 0 0 0) BRKXYZ=(9 4.3299 5.49-
M  V30 75 0 4.3299 -5.5026 0 0 0 0)
M  V30 END SGROUP
M  V30 END CTAB
M  END
>  <BIGSMILES_BRACKET_RECORDS_JSON>
{
  "records": [
    {
      "id": 0,
      "bracket_kind": "backbone",
      "pairing_id": "F2/fragments[0]",
      "group_id": "$a:2",
      "ru_midpoint": [
        6.061981335654868,
        -0.00256121081686569
      ],
      "bond_midpoint": [
        4.329948204704333,
        -0.0025800091833646788
      ],
      "orientation_vector": [
        0.0,
        -1.0
      ],
      "half_bracket_size": 0.4999001600153621,
      "bond": [
        11,
        22
      ],
      "fragment": "F2",
      "backbone": true,
      "suspended_anchor_atom": null,
      "suspended_reason": null,
      "source_label": "F2/fragments[0]",
      "marker_id": "0",
      "side": "left",
      "connection_group": "$a",
      "marker_type_index": 2
    },
    {
      "id": 1,
      "bracket_kind": "backbone",
      "pairing_id": "F2/fragments[0]",
      "group_id": "$a:2",
      "ru_midpoint": [
        6.061981335654868,
        -0.00256121081686569
      ],
      "bond_midpoint": [
        7.794025317502047,
        -0.002561210816865722
      ],
      "orientation_vector": [
        0.0,
        -1.0
      ],
      "half_bracket_size": 0.4999001600153621,
      "bond": [
        26,
        27
      ],
      "fragment": "F2",
      "backbone": true,
      "suspended_anchor_atom": null,
      "suspended_reason": null,
      "source_label": "F2/fragments[0]",
      "marker_id": "6",
      "side": "right",
      "connection_group": "$a",
      "marker_type_index": 2
    },
    {
      "id": 2,
      "bracket_kind": "backbone",
      "pairing_id": "F2/fragments[1]",
      "group_id": "$a:2",
      "ru_midpoint": [
        8.660084702506216,
        -0.0025612108168656623
      ],
      "bond_midpoint": [
        7.794025317502047,
        -0.002561210816865722
      ],
      "orientation_vector": [
        0.0,
        1.0
      ],
      "half_bracket_size": 0.4999001600153621,
      "bond": [
        26,
        27
      ],
      "fragment": "F2",
      "backbone": true,
      "suspended_anchor_atom": null,
      "suspended_reason": null,
      "source_label": "F2/fragments[1]",
      "marker_id": "0",
      "side": "left",
      "connection_group": "$a",
      "marker_type_index": 2
    },
    {
      "id": 3,
      "bracket_kind": "backbone",
      "pairing_id": "F2/fragments[1]",
      "group_id": "$a:2",
      "ru_midpoint": [
        8.660084702506216,
        -0.0025612108168656623
      ],
      "bond_midpoint": [
        9.52610456295436,
        -0.002561210816865639
      ],
      "orientation_vector": [
        0.0,
        1.0
      ],
      "half_bracket_size": 0.4999001600153621,
      "bond": [
        28,
        32
      ],
      "fragment": "F2",
      "backbone": true,
      "suspended_anchor_atom": null,
      "suspended_reason": null,
      "source_label": "F2/fragments[1]",
      "marker_id": "6",
      "side": "right",
      "connection_group": "$a",
      "marker_type_index": 2
    },
    {
      "id": 4,
      "bracket_kind": "backbone",
      "pairing_id": "F2/fragments[2]",
      "group_id": "$a:2",
      "ru_midpoint": [
        10.392135250551169,
        -0.0025532127982084386
      ],
      "bond_midpoint": [
        9.52610456295436,
        -0.002561210816865639
      ],
      "orientation_vector": [
        0.0,
        1.0
      ],
      "half_bracket_size": 0.4999001600153621,
      "bond": [
        28,
        32
      ],
      "fragment": "F2",
      "backbone": true,
      "suspended_anchor_atom": null,
      "suspended_reason": null,
      "source_label": "F2/fragments[2]",
      "marker_id": "0",
      "side": "left",
      "connection_group": "$a",
      "marker_type_index": 2
    },
    {
      "id": 5,
      "bracket_kind": "backbone",
      "pairing_id": "F2/fragments[2]",
      "group_id": "$a:2",
      "ru_midpoint": [
        10.392135250551169,
        -0.0025532127982084386
      ],
      "bond_midpoint": [
        11.258152621012682,
        -0.002561210816865528
      ],
      "orientation_vector": [
        0.0,
        1.0
      ],
      "half_bracket_size": 0.4999001600153621,
      "bond": [
        1,
        33
      ],
      "fragment": "F2",
      "backbone": true,
      "suspended_anchor_atom": null,
      "suspended_reason": null,
      "source_label": "F2/fragments[2]",
      "marker_id": "6",
      "side": "right",
      "connection_group": "$a",
      "marker_type_index": 2
    },
    {
      "id": 6,
      "bracket_kind": "backbone",
      "pairing_id": "F2/connected",
      "group_id": "$overall",
      "ru_midpoint": [
        7.794016527925338,
        -0.002553212798208411
      ],
      "bond_midpoint": [
        4.329948204704333,
        -0.0025800091833646788
      ],
      "orientation_vector": [
        0.0,
        -1.0
      ],
      "half_bracket_size": 2.9999227350143496,
      "bond": [
        11,
        22
      ],
      "fragment": "F2",
      "backbone": true,
      "suspended_anchor_atom": null,
      "suspended_reason": null,
      "source_label": "F2/connected",
      "marker_id": "connected-overall-left",
      "side": "left",
      "connection_group": "$overall",
      "marker_type_index": null
    },
    {
      "id": 7,
      "bracket_kind": "backbone",
      "pairing_id": "F2/connected",
      "group_id": "$overall",
      "ru_midpoint": [
        7.794016527925338,
        -0.002553212798208411
      ],
      "bond_midpoint": [
        11.258152621012682,
        -0.002561210816865528
      ],
      "orientation_vector": [
        0.0,
        -1.0
      ],
      "half_bracket_size": 2.9999227350143496,
      "bond": [
        1,
        33
      ],
      "fragment": "F2",
      "backbone": true,
      "suspended_anchor_atom": null,
      "suspended_reason": null,
      "source_label": "F2/connected",
      "marker_id": "connected-overall-right",
      "side": "right",
      "connection_group": "$overall",
      "marker_type_index": null
    },
    {
      "id": 8,
      "bracket_kind": "backbone",
      "pairing_id": "F1/fragments[0]",
      "group_id": "$a:2",
      "ru_midpoint": [
        1.7320099576947547,
        -0.002530030136155238
      ],
      "bond_midpoint": [
        0.866044918095094,
        -0.002529530130596702
      ],
      "orientation_vector": [
        0.0,
        1.0
      ],
      "half_bracket_size": 0.5000228868815642,
      "bond": [
        0,
        2
      ],
      "fragment": "F1",
      "backbone": true,
      "suspended_anchor_atom": null,
      "suspended_reason": null,
      "source_label": "F1/fragments[0]",
      "marker_id": "0",
      "side": "left",
      "connection_group": "$a",
      "marker_type_index": 2
    },
    {
      "id": 9,
      "bracket_kind": "backbone",
      "pairing_id": "F1/fragments[0]",
      "group_id": "$a:2",
      "ru_midpoint": [
        1.7320099576947547,
        -0.002530030136155238
      ],
      "bond_midpoint": [
        2.597994247971828,
        -0.002529530130596702
      ],
      "orientation_vector": [
        0.0,
        1.0
      ],
      "half_bracket_size": 0.5000228868815642,
      "bond": [
        3,
        10
      ],
      "fragment": "F1",
      "backbone": true,
      "suspended_anchor_atom": null,
      "suspended_reason": null,
      "source_label": "F1/fragments[0]",
      "marker_id": "9",
      "side": "right",
      "connection_group": "$a",
      "marker_type_index": 2
    },
    {
      "id": 10,
      "bracket_kind": "backbone",
      "pairing_id": "F1/fragments[1]",
      "group_id": "$a:2",
      "ru_midpoint": [
        3.463995152812811,
        -0.0025374441167631224
      ],
      "bond_midpoint": [
        2.597994247971828,
        -0.002529530130596702
      ],
      "orientation_vector": [
        0.0,
        1.0
      ],
      "half_bracket_size": 0.5000228868815642,
      "bond": [
        3,
        10
      ],
      "fragment": "F1",
      "backbone": true,
      "suspended_anchor_atom": null,
      "suspended_reason": null,
      "source_label": "F1/fragments[1]",
      "marker_id": "0",
      "side": "left",
      "connection_group": "$a",
      "marker_type_index": 2
    },
    {
      "id": 11,
      "bracket_kind": "backbone",
      "pairing_id": "F1/fragments[1]",
      "group_id": "$a:2",
      "ru_midpoint": [
        3.463995152812811,
        -0.0025374441167631224
      ],
      "bond_midpoint": [
        4.329948204704333,
        -0.0025800091833646788
      ],
      "orientation_vector": [
        0.0,
        1.0
      ],
      "half_bracket_size": 0.5000228868815642,
      "bond": [
        11,
        22
      ],
      "fragment": "F1",
      "backbone": true,
      "suspended_anchor_atom": null,
      "suspended_reason": null,
      "source_label": "F1/fragments[1]",
      "marker_id": "13",
      "side": "right",
      "connection_group": "$a",
      "marker_type_index": 2
    },
    {
      "id": 12,
      "bracket_kind": "backbone",
      "pairing_id": "F1/connected",
      "group_id": "$overall",
      "ru_midpoint": [
        2.5980312460837864,
        -0.002532668131544481
      ],
      "bond_midpoint": [
        0.866044918095094,
        -0.002529530130596702
      ],
      "orientation_vector": [
        0.0,
        1.0
      ],
      "half_bracket_size": 5.500032886871565,
      "bond": [
        0,
        2
      ],
      "fragment": "F1",
      "backbone": true,
      "suspended_anchor_atom": null,
      "suspended_reason": null,
      "source_label": "F1/connected",
      "marker_id": "connected-overall-left",
      "side": "left",
      "connection_group": "$overall",
      "marker_type_index": null
    },
    {
      "id": 13,
      "bracket_kind": "backbone",
      "pairing_id": "F1/connected",
      "group_id": "$overall",
      "ru_midpoint": [
        2.5980312460837864,
        -0.002532668131544481
      ],
      "bond_midpoint": [
        4.329948204704333,
        -0.0025800091833646788
      ],
      "orientation_vector": [
        0.0,
        1.0
      ],
      "half_bracket_size": 5.500032886871565,
      "bond": [
        11,
        22
      ],
      "fragment": "F1",
      "backbone": true,
      "suspended_anchor_atom": null,
      "suspended_reason": null,
      "source_label": "F1/connected",
      "marker_id": "connected-overall-right",
      "side": "right",
      "connection_group": "$overall",
      "marker_type_index": null
    }
  ]
}
