
     RDKit          2D

  0  0  0  0  0  0  0  0  0  0999 V3000
M  V30 BEGIN CTAB
M  V30 COUNTS 14 13 4 0 0
M  V30 BEGIN ATOM
M  V30 1 H 2.165138 -0.252495 0.000000 0
M  V30 2 H 9.959366 0.247505 0.000000 0
M  V30 3 C 3.031142 0.247405 0.000000 0
M  V30 4 C 3.897147 -0.252495 0.000000 0
M  V30 5 C 4.763143 0.247405 0.000000 0
M  V30 6 C 5.629147 -0.252495 0.000000 0
M  V30 7 C 6.495230 0.247405 0.000000 0
M  V30 8 C 7.361235 -0.252495 0.000000 0
M  V30 9 C 7.361235 -1.252520 0.000000 0
M  V30 10 C 6.495082 -1.752364 0.000000 0
M  V30 11 Si 8.227260 0.247505 0.000000 0 VAL=4
M  V30 12 C 8.227260 -0.752420 0.000000 0
M  V30 13 C 8.227260 1.247530 0.000000 0
M  V30 14 O 9.093313 -0.252511 0.000000 0
M  V30 END ATOM
M  V30 BEGIN BOND
M  V30 1 1 3 4
M  V30 2 1 4 5
M  V30 3 1 5 6
M  V30 4 1 7 8
M  V30 5 1 8 9
M  V30 6 1 9 10
M  V30 7 1 6 7
M  V30 8 1 1 3
M  V30 9 1 11 12
M  V30 10 1 11 13
M  V30 11 1 11 14
M  V30 12 1 8 11
M  V30 13 1 2 14
M  V30 END BOND
M  V30 BEGIN SGROUP
M  V30 1 SRU 0 ATOMS=(4 2 8 11 14) CBONDS=(2 12 13) -
M  V30 BRKXYZ=(9 7.7942 -0.5025 0 7.7942 0.4975 0 0 0 0) BRKXYZ=(9 9.5263 -0.5-
M  V30 025 0 9.5263 0.4975 0 0 0 0)
M  V30 2 SRU 0 ATOMS=(4 1 3 6 7) CBONDS=(2 7 8) -
M  V30 BRKXYZ=(9 2.5981 0.4974 0 2.5981 -0.5024 0 0 0 0) BRKXYZ=(9 6.0622 0.49-
M  V30 74 0 6.0622 -0.5024 0 0 0 0)
M  V30 3 SRU 0 ATOMS=(4 6 7 8 11) CBONDS=(2 7 12) -
M  V30 BRKXYZ=(9 6.0622 0.4974 0 6.0622 -0.5024 0 0 0 0) BRKXYZ=(9 7.7942 0.49-
M  V30 74 0 7.7942 -0.5024 0 0 0 0)
M  V30 4 SRU 0 ATOMS=(4 1 3 8 11) CBONDS=(2 8 12) -
M  V30 BRKXYZ=(9 2.5981 1.9972 0 2.5981 -2.0023 0 0 0 0) BRKXYZ=(9 7.7942 1.99-
M  V30 73 0 7.7942 -2.0023 0 0 0 0)
M  V30 END SGROUP
M  V30 END CTAB
M  END
>  <BIGSMILES_BRACKET_RECORDS_JSON>
{
  "records": [
    {
      "id": 0,
      "bracket_kind": "backbone",
      "pairing_id": "F2/fragments[0]",
      "group_id": "<1:3",
      "ru_midpoint": [
        8.660299336972404,
        -0.002496970745506555
      ],
      "bond_midpoint": [
        7.794247280249699,
        -0.0024951358427378056
      ],
      "orientation_vector": [
        0.0,
        -1.0
      ],
      "half_bracket_size": 0.5000159997440081,
      "bond": [
        7,
        10
      ],
      "fragment": "F2",
      "backbone": true,
      "suspended_anchor_atom": null,
      "suspended_reason": null,
      "source_label": "F2/fragments[0]",
      "marker_id": "0",
      "side": "left",
      "connection_group": "<1",
      "marker_type_index": 3
    },
    {
      "id": 1,
      "bracket_kind": "backbone",
      "pairing_id": "F2/fragments[0]",
      "group_id": ">1:4",
      "ru_midpoint": [
        8.660299336972404,
        -0.002496970745506555
      ],
      "bond_midpoint": [
        9.526339656372873,
        -0.002503135714741922
      ],
      "orientation_vector": [
        0.0,
        -1.0
      ],
      "half_bracket_size": 0.5000159997440081,
      "bond": [
        1,
        13
      ],
      "fragment": "F2",
      "backbone": true,
      "suspended_anchor_atom": null,
      "suspended_reason": null,
      "source_label": "F2/fragments[0]",
      "marker_id": "5",
      "side": "right",
      "connection_group": ">1",
      "marker_type_index": 4
    },
    {
      "id": 2,
      "bracket_kind": "backbone",
      "pairing_id": "F1/fragments[0]",
      "group_id": "$a:2",
      "ru_midpoint": [
        4.330173206932116,
        -0.002526257468557969
      ],
      "bond_midpoint": [
        2.5981400759815823,
        -0.002545055835057153
      ],
      "orientation_vector": [
        0.0,
        1.0
      ],
      "half_bracket_size": 0.49990016001536275,
      "bond": [
        0,
        2
      ],
      "fragment": "F1",
      "backbone": true,
      "suspended_anchor_atom": null,
      "suspended_reason": null,
      "source_label": "F1/fragments[0]",
      "marker_id": "0",
      "side": "left",
      "connection_group": "$a",
      "marker_type_index": 2
    },
    {
      "id": 3,
      "bracket_kind": "backbone",
      "pairing_id": "F1/fragments[0]",
      "group_id": "$a:2",
      "ru_midpoint": [
        4.330173206932116,
        -0.002526257468557969
      ],
      "bond_midpoint": [
        6.0621886998596715,
        -0.0025450558350567642
      ],
      "orientation_vector": [
        0.0,
        1.0
      ],
      "half_bracket_size": 0.49990016001536275,
      "bond": [
        5,
        6
      ],
      "fragment": "F1",
      "backbone": true,
      "suspended_anchor_atom": null,
      "suspended_reason": null,
      "source_label": "F1/fragments[0]",
      "marker_id": "5",
      "side": "right",
      "connection_group": "$a",
      "marker_type_index": 2
    },
    {
      "id": 4,
      "bracket_kind": "backbone",
      "pairing_id": "F1/fragments[1]",
      "group_id": "$a:2",
      "ru_midpoint": [
        6.92825419918055,
        -0.0025450558350570644
      ],
      "bond_midpoint": [
        6.0621886998596715,
        -0.0025450558350567642
      ],
      "orientation_vector": [
        0.0,
        1.0
      ],
      "half_bracket_size": 0.49990016001536275,
      "bond": [
        5,
        6
      ],
      "fragment": "F1",
      "backbone": true,
      "suspended_anchor_atom": null,
      "suspended_reason": null,
      "source_label": "F1/fragments[1]",
      "marker_id": "0",
      "side": "left",
      "connection_group": "$a",
      "marker_type_index": 2
    },
    {
      "id": 5,
      "bracket_kind": "backbone",
      "pairing_id": "F1/fragments[1]",
      "group_id": "$a:2",
      "ru_midpoint": [
        6.92825419918055,
        -0.0025450558350570644
      ],
      "bond_midpoint": [
        7.794247280249699,
        -0.0024951358427378056
      ],
      "orientation_vector": [
        0.0,
        1.0
      ],
      "half_bracket_size": 0.49990016001536275,
      "bond": [
        7,
        10
      ],
      "fragment": "F1",
      "backbone": true,
      "suspended_anchor_atom": null,
      "suspended_reason": null,
      "source_label": "F1/fragments[1]",
      "marker_id": "5",
      "side": "right",
      "connection_group": "$a",
      "marker_type_index": 2
    },
    {
      "id": 6,
      "bracket_kind": "backbone",
      "pairing_id": "F1/connected",
      "group_id": "$overall",
      "ru_midpoint": [
        5.196216952054351,
        -0.002526257468557969
      ],
      "bond_midpoint": [
        2.5981400759815823,
        -0.002545055835057153
      ],
      "orientation_vector": [
        0.0,
        1.0
      ],
      "half_bracket_size": 1.9997688137103973,
      "bond": [
        0,
        2
      ],
      "fragment": "F1",
      "backbone": true,
      "suspended_anchor_atom": null,
      "suspended_reason": null,
      "source_label": "F1/connected",
      "marker_id": "connected-overall-left",
      "side": "left",
      "connection_group": "$overall",
      "marker_type_index": null
    },
    {
      "id": 7,
      "bracket_kind": "backbone",
      "pairing_id": "F1/connected",
      "group_id": "$overall",
      "ru_midpoint": [
        5.196216952054351,
        -0.002526257468557969
      ],
      "bond_midpoint": [
        7.794247280249699,
        -0.0024951358427378056
      ],
      "orientation_vector": [
        0.0,
        1.0
      ],
      "half_bracket_size": 1.9997688137103973,
      "bond": [
        7,
        10
      ],
      "fragment": "F1",
      "backbone": true,
      "suspended_anchor_atom": null,
      "suspended_reason": null,
      "source_label": "F1/connected",
      "marker_id": "connected-overall-right",
      "side": "right",
      "connection_group": "$overall",
      "marker_type_index": null
    }
  ]
}
