
     RDKit          2D

  0  0  0  0  0  0  0  0  0  0999 V3000
M  V30 BEGIN CTAB
M  V30 COUNTS 15 14 4 0 0
M  V30 BEGIN ATOM
M  V30 1 H 1.732209 0.247565 0.000000 0
M  V30 2 H 10.392177 0.247490 0.000000 0
M  V30 3 C 2.598148 -0.252448 0.000000 0
M  V30 4 C 2.598148 -1.252372 0.000000 0
M  V30 5 C 3.464088 0.247565 0.000000 0
M  V30 6 O 3.464090 1.247565 0.000000 0
M  V30 7 O 4.330019 -0.252448 0.000000 0
M  V30 8 C 5.196081 0.247490 0.000000 0
M  V30 9 C 6.062085 -0.252410 0.000000 0
M  V30 10 C 6.928081 0.247490 0.000000 0
M  V30 11 C 7.794085 -0.252410 0.000000 0
M  V30 12 C 8.660168 0.247490 0.000000 0
M  V30 13 C 9.526173 -0.252410 0.000000 0
M  V30 14 C 9.526173 -1.252435 0.000000 0
M  V30 15 C 8.660020 -1.752279 0.000000 0
M  V30 END ATOM
M  V30 BEGIN BOND
M  V30 1 1 3 4
M  V30 2 1 3 5
M  V30 3 2 5 6
M  V30 4 1 5 7
M  V30 5 1 1 3
M  V30 6 1 8 9
M  V30 7 1 9 10
M  V30 8 1 10 11
M  V30 9 1 12 13
M  V30 10 1 13 14
M  V30 11 1 14 15
M  V30 12 1 11 12
M  V30 13 1 7 8
M  V30 14 1 2 13
M  V30 END BOND
M  V30 BEGIN SGROUP
M  V30 1 SRU 0 ATOMS=(4 7 8 11 12) CBONDS=(2 12 13) -
M  V30 BRKXYZ=(9 4.7630 0.4974 0 4.7630 -0.5024 0 0 0 0) BRKXYZ=(9 8.2271 0.49-
M  V30 74 0 8.2271 -0.5024 0 0 0 0)
M  V30 2 SRU 0 ATOMS=(4 2 11 12 13) CBONDS=(2 12 14) -
M  V30 BRKXYZ=(9 8.2271 0.4974 0 8.2271 -0.5024 0 0 0 0) BRKXYZ=(9 9.9592 0.49-
M  V30 74 0 9.9592 -0.5024 0 0 0 0)
M  V30 3 SRU 0 ATOMS=(4 2 7 8 13) CBONDS=(2 13 14) -
M  V30 BRKXYZ=(9 4.7630 1.9973 0 4.7630 -2.0022 0 0 0 0) BRKXYZ=(9 9.9592 1.99-
M  V30 73 0 9.9592 -2.0022 0 0 0 0)
M  V30 4 SRU 0 ATOMS=(4 1 3 7 8) CBONDS=(2 5 13) -
M  V30 BRKXYZ=(9 2.1652 0.4976 0 2.1652 -0.5025 0 0 0 0) BRKXYZ=(9 4.7630 0.49-
M  V30 75 0 4.7630 -0.5025 0 0 0 0)
M  V30 END SGROUP
M  V30 END CTAB
M  END
>  <BIGSMILES_BRACKET_RECORDS_JSON>
{
  "records": [
    {
      "id": 0,
      "bracket_kind": "backbone",
      "pairing_id": "F2/fragments[0]",
      "group_id": "$a:2",
      "ru_midpoint": [
        6.495082974127695,
        -0.0024599214844042705
      ],
      "bond_midpoint": [
        4.763049843177161,
        -0.002478719850903588
      ],
      "orientation_vector": [
        0.0,
        1.0
      ],
      "half_bracket_size": 0.49990016001536275,
      "bond": [
        6,
        7
      ],
      "fragment": "F2",
      "backbone": true,
      "suspended_anchor_atom": null,
      "suspended_reason": null,
      "source_label": "F2/fragments[0]",
      "marker_id": "0",
      "side": "left",
      "connection_group": "$a",
      "marker_type_index": 2
    },
    {
      "id": 1,
      "bracket_kind": "backbone",
      "pairing_id": "F2/fragments[0]",
      "group_id": "$a:2",
      "ru_midpoint": [
        6.495082974127695,
        -0.0024599214844042705
      ],
      "bond_midpoint": [
        8.227126955974876,
        -0.0024599214844040485
      ],
      "orientation_vector": [
        0.0,
        1.0
      ],
      "half_bracket_size": 0.49990016001536275,
      "bond": [
        10,
        11
      ],
      "fragment": "F2",
      "backbone": true,
      "suspended_anchor_atom": null,
      "suspended_reason": null,
      "source_label": "F2/fragments[0]",
      "marker_id": "5",
      "side": "right",
      "connection_group": "$a",
      "marker_type_index": 2
    },
    {
      "id": 2,
      "bracket_kind": "backbone",
      "pairing_id": "F2/fragments[1]",
      "group_id": "$a:2",
      "ru_midpoint": [
        9.093153069313008,
        -0.0024598415004167817
      ],
      "bond_midpoint": [
        8.227126955974876,
        -0.0024599214844040485
      ],
      "orientation_vector": [
        0.0,
        1.0
      ],
      "half_bracket_size": 0.49990016001536275,
      "bond": [
        10,
        11
      ],
      "fragment": "F2",
      "backbone": true,
      "suspended_anchor_atom": null,
      "suspended_reason": null,
      "source_label": "F2/fragments[1]",
      "marker_id": "0",
      "side": "left",
      "connection_group": "$a",
      "marker_type_index": 2
    },
    {
      "id": 3,
      "bracket_kind": "backbone",
      "pairing_id": "F2/fragments[1]",
      "group_id": "$a:2",
      "ru_midpoint": [
        9.093153069313008,
        -0.0024598415004167817
      ],
      "bond_midpoint": [
        9.959175014033196,
        -0.002459921484404104
      ],
      "orientation_vector": [
        0.0,
        1.0
      ],
      "half_bracket_size": 0.49990016001536275,
      "bond": [
        1,
        12
      ],
      "fragment": "F2",
      "backbone": true,
      "suspended_anchor_atom": null,
      "suspended_reason": null,
      "source_label": "F2/fragments[1]",
      "marker_id": "5",
      "side": "right",
      "connection_group": "$a",
      "marker_type_index": 2
    },
    {
      "id": 4,
      "bracket_kind": "backbone",
      "pairing_id": "F2/connected",
      "group_id": "$overall",
      "ru_midpoint": [
        7.361087333267183,
        -0.0024598415004168372
      ],
      "bond_midpoint": [
        4.763049843177161,
        -0.002478719850903588
      ],
      "orientation_vector": [
        0.0,
        1.0
      ],
      "half_bracket_size": 1.9997688137103973,
      "bond": [
        6,
        7
      ],
      "fragment": "F2",
      "backbone": true,
      "suspended_anchor_atom": null,
      "suspended_reason": null,
      "source_label": "F2/connected",
      "marker_id": "connected-overall-left",
      "side": "left",
      "connection_group": "$overall",
      "marker_type_index": null
    },
    {
      "id": 5,
      "bracket_kind": "backbone",
      "pairing_id": "F2/connected",
      "group_id": "$overall",
      "ru_midpoint": [
        7.361087333267183,
        -0.0024598415004168372
      ],
      "bond_midpoint": [
        9.959175014033196,
        -0.002459921484404104
      ],
      "orientation_vector": [
        0.0,
        1.0
      ],
      "half_bracket_size": 1.9997688137103973,
      "bond": [
        1,
        12
      ],
      "fragment": "F2",
      "backbone": true,
      "suspended_anchor_atom": null,
      "suspended_reason": null,
      "source_label": "F2/connected",
      "marker_id": "connected-overall-right",
      "side": "right",
      "connection_group": "$overall",
      "marker_type_index": null
    },
    {
      "id": 6,
      "bracket_kind": "backbone",
      "pairing_id": "F1/fragments[0]",
      "group_id": "<1:3",
      "ru_midpoint": [
        3.4641080440478023,
        0.04755987874820444
      ],
      "bond_midpoint": [
        2.165178326697929,
        -0.002441434082288807
      ],
      "orientation_vector": [
        0.0,
        1.0
      ],
      "half_bracket_size": 0.5000123282855897,
      "bond": [
        0,
        2
      ],
      "fragment": "F1",
      "backbone": true,
      "suspended_anchor_atom": null,
      "suspended_reason": null,
      "source_label": "F1/fragments[0]",
      "marker_id": "0",
      "side": "left",
      "connection_group": "<1",
      "marker_type_index": 3
    },
    {
      "id": 7,
      "bracket_kind": "backbone",
      "pairing_id": "F1/fragments[0]",
      "group_id": ">1:4",
      "ru_midpoint": [
        3.4641080440478023,
        0.04755987874820444
      ],
      "bond_midpoint": [
        4.763049843177161,
        -0.002478719850903588
      ],
      "orientation_vector": [
        0.0,
        1.0
      ],
      "half_bracket_size": 0.5000123282855897,
      "bond": [
        6,
        7
      ],
      "fragment": "F1",
      "backbone": true,
      "suspended_anchor_atom": null,
      "suspended_reason": null,
      "source_label": "F1/fragments[0]",
      "marker_id": "6",
      "side": "right",
      "connection_group": ">1",
      "marker_type_index": 4
    }
  ]
}
