
     RDKit          2D

  0  0  0  0  0  0  0  0  0  0999 V3000
M  V30 BEGIN CTAB
M  V30 COUNTS 13 13 1 0 0
M  V30 BEGIN ATOM
M  V30 1 H -2.567385 0.118794 0.000000 0
M  V30 2 H 2.432586 -0.381206 0.000000 0
M  V30 3 O -1.567385 -0.381206 0.000000 0
M  V30 4 C -0.567385 -0.381206 0.000000 0
M  V30 5 C -0.067392 0.484806 0.000000 0 RAD=2 VAL=3
M  V30 6 O -0.567365 1.350784 0.000000 0
M  V30 7 C 0.932593 0.484806 0.000000 0 RAD=2 VAL=3
M  V30 8 O 1.432568 1.350787 0.000000 0
M  V30 9 C 1.432586 -0.381206 0.000000 0
M  V30 10 C 0.932593 -1.247219 0.000000 0 RAD=2 VAL=3
M  V30 11 C 1.432599 -2.113255 0.000000 0
M  V30 12 O 0.932443 -2.979219 0.000000 0
M  V30 13 O -0.067392 -1.247219 0.000000 0
M  V30 END ATOM
M  V30 BEGIN BOND
M  V30 1 1 3 4
M  V30 2 1 4 5
M  V30 3 1 5 6 CFG=3
M  V30 4 1 5 7
M  V30 5 1 7 8 CFG=1
M  V30 6 1 7 9
M  V30 7 1 9 10
M  V30 8 1 10 11 CFG=1
M  V30 9 1 11 12
M  V30 10 1 10 13
M  V30 11 1 13 4
M  V30 12 1 1 3
M  V30 13 1 2 9
M  V30 END BOND
M  V30 BEGIN SGROUP
M  V30 1 SRU 0 ATOMS=(4 1 2 3 9) CBONDS=(2 12 13) -
M  V30 BRKXYZ=(9 -2.0674 1.6008 0 -2.0674 -1.8632 0 0 0 0) BRKXYZ=(9 1.9326 1.-
M  V30 3508 0 1.9326 -2.1132 0 0 0 0)
M  V30 END SGROUP
M  V30 END CTAB
M  END
>  <BIGSMILES_BRACKET_RECORDS_JSON>
{
  "records": [
    {
      "id": 0,
      "bracket_kind": "backbone",
      "pairing_id": "F1/fragments[0]",
      "group_id": "<1:3",
      "ru_midpoint": [
        0.04721486115579504,
        -0.43685093650399165
      ],
      "bond_midpoint": [
        -2.0673850931859716,
        -0.1312064920595473
      ],
      "orientation_vector": [
        0.0,
        1.0
      ],
      "half_bracket_size": 1.7320259682381889,
      "bond": [
        0,
        2
      ],
      "fragment": "F1",
      "backbone": true,
      "suspended_anchor_atom": null,
      "suspended_reason": null,
      "source_label": "F1/fragments[0]",
      "marker_id": "0",
      "side": "left",
      "connection_group": "<1",
      "marker_type_index": 3
    },
    {
      "id": 1,
      "bracket_kind": "backbone",
      "pairing_id": "F1/fragments[0]",
      "group_id": ">1:4",
      "ru_midpoint": [
        0.04721486115579504,
        -0.43685093650399165
      ],
      "bond_midpoint": [
        1.9325862248255095,
        -0.38120649205954804
      ],
      "orientation_vector": [
        0.0,
        1.0
      ],
      "half_bracket_size": 1.7320259682381889,
      "bond": [
        1,
        8
      ],
      "fragment": "F1",
      "backbone": true,
      "suspended_anchor_atom": null,
      "suspended_reason": null,
      "source_label": "F1/fragments[0]",
      "marker_id": "12",
      "side": "right",
      "connection_group": ">1",
      "marker_type_index": 4
    }
  ]
}
