
     RDKit          2D

  0  0  0  0  0  0  0  0  0  0999 V3000
M  V30 BEGIN CTAB
M  V30 COUNTS 37 38 2 0 0
M  V30 BEGIN ATOM
M  V30 1 O 2.598200 -0.224800 0.000000 0
M  V30 2 C 3.464196 -0.724900 0.000000 0
M  V30 3 O 3.464194 -1.724900 0.000000 0
M  V30 4 C 4.330201 -0.224800 0.000000 0
M  V30 5 C 5.196197 -0.724900 0.000000 0
M  V30 6 C 6.062085 -0.224800 0.000000 0
M  V30 7 C 6.062085 -1.224825 0.000000 0
M  V30 8 C 6.062085 0.775125 0.000000 0
M  V30 9 N 6.061912 1.775149 0.000000 0
M  V30 10 S 10.392007 -0.724937 0.000000 0
M  V30 11 C 11.258069 -0.224937 0.000000 0
M  V30 12 S 11.258069 0.775063 0.000000 0
M  V30 13 C 12.258069 -0.224937 0.000000 0
M  V30 14 C 12.758074 0.641097 0.000000 0
M  V30 15 C 13.758084 0.641097 0.000000 0
M  V30 16 C 14.258089 -0.224937 0.000000 0
M  V30 17 C 13.758084 -1.090971 0.000000 0
M  V30 18 C 12.758074 -1.090971 0.000000 0
M  V30 19 C 6.927974 -0.724900 0.000000 0
M  V30 20 C 6.927974 0.275032 0.000000 0
M  V30 21 C 6.927974 -1.724925 0.000000 0
M  V30 22 O 6.061995 -2.225006 0.000000 0
M  V30 23 O 7.794127 -2.224769 0.000000 0
M  V30 24 C 7.794127 -3.224793 0.000000 0
M  V30 25 C 8.660106 -3.724737 0.000000 0
M  V30 26 N 8.660279 -4.724662 0.000000 0
M  V30 27 C 9.526258 -5.224606 0.000000 0
M  V30 28 C 7.794300 -5.224743 0.000000 0
M  V30 29 C 7.794030 -0.224888 0.000000 0
M  V30 30 C 8.660052 -0.724894 0.000000 0
M  V30 31 C 9.526011 -0.224887 0.000000 0
M  V30 32 C 9.526011 0.775115 0.000000 0
M  V30 33 C 8.659809 1.275049 0.000000 0
M  V30 34 C 8.660009 2.275050 0.000000 0
M  V30 35 C 9.525811 2.775120 0.000000 0
M  V30 36 C 10.392012 2.275186 0.000000 0
M  V30 37 C 10.391812 1.275185 0.000000 0
M  V30 END ATOM
M  V30 BEGIN BOND
M  V30 1 1 1 2
M  V30 2 2 2 3
M  V30 3 1 2 4
M  V30 4 1 4 5
M  V30 5 1 5 6
M  V30 6 1 6 7
M  V30 7 1 6 8
M  V30 8 3 8 9
M  V30 9 1 10 11
M  V30 10 2 11 12
M  V30 11 1 11 13
M  V30 12 2 13 14
M  V30 13 1 14 15
M  V30 14 2 15 16
M  V30 15 1 16 17
M  V30 16 2 17 18
M  V30 17 1 18 13
M  V30 18 1 19 20
M  V30 19 1 19 21
M  V30 20 2 21 22
M  V30 21 1 21 23
M  V30 22 1 23 24
M  V30 23 1 24 25
M  V30 24 1 25 26
M  V30 25 1 26 27
M  V30 26 1 26 28
M  V30 27 1 19 29
M  V30 28 1 30 31
M  V30 29 1 31 32
M  V30 30 2 32 33
M  V30 31 1 33 34
M  V30 32 2 34 35
M  V30 33 1 35 36
M  V30 34 2 36 37
M  V30 35 1 37 32
M  V30 36 1 29 30
M  V30 37 1 10 31
M  V30 38 1 6 19
M  V30 END BOND
M  V30 BEGIN SGROUP
M  V30 1 SRU 0 ATOMS=(4 10 29 30 31) CBONDS=(2 36 37) -
M  V30 BRKXYZ=(9 8.2270 -0.9749 0 8.2270 0.0251 0 0 0 0) BRKXYZ=(9 9.9590 -0.9-
M  V30 749 0 9.9590 0.0251 0 0 0 0)
M  V30 2 SRU 0 ATOMS=(4 6 19 29 30) CBONDS=(2 36 38) -
M  V30 BRKXYZ=(9 6.4950 0.0252 0 6.4950 -0.9749 0 0 0 0) BRKXYZ=(9 8.2270 0.02-
M  V30 51 0 8.2270 -0.9749 0 0 0 0)
M  V30 END SGROUP
M  V30 END CTAB
M  END
>  <BIGSMILES_BRACKET_RECORDS_JSON>
{
  "records": [
    {
      "id": 0,
      "bracket_kind": "backbone",
      "pairing_id": "F3/fragments[0]",
      "group_id": "$a:2",
      "ru_midpoint": [
        9.09300559536403,
        -0.4748903595455487
      ],
      "bond_midpoint": [
        8.227040555764368,
        -0.47489085955110744
      ],
      "orientation_vector": [
        0.0,
        -1.0
      ],
      "half_bracket_size": 0.5000070589092322,
      "bond": [
        28,
        29
      ],
      "fragment": "F3",
      "backbone": true,
      "suspended_anchor_atom": null,
      "suspended_reason": null,
      "source_label": "F3/fragments[0]",
      "marker_id": "0",
      "side": "left",
      "connection_group": "$a",
      "marker_type_index": 2
    },
    {
      "id": 1,
      "bracket_kind": "backbone",
      "pairing_id": "F3/fragments[0]",
      "group_id": "$a:2",
      "ru_midpoint": [
        9.09300559536403,
        -0.4748903595455487
      ],
      "bond_midpoint": [
        9.959008835700537,
        -0.47491191763800644
      ],
      "orientation_vector": [
        0.0,
        -1.0
      ],
      "half_bracket_size": 0.5000070589092322,
      "bond": [
        9,
        30
      ],
      "fragment": "F3",
      "backbone": true,
      "suspended_anchor_atom": null,
      "suspended_reason": null,
      "source_label": "F3/fragments[0]",
      "marker_id": "9",
      "side": "right",
      "connection_group": "$a",
      "marker_type_index": 2
    },
    {
      "id": 2,
      "bracket_kind": "backbone",
      "pairing_id": "F2/fragments[0]",
      "group_id": "$a:2",
      "ru_midpoint": [
        7.361001985459975,
        -0.4748939950260377
      ],
      "bond_midpoint": [
        6.49502992869927,
        -0.4748500799750124
      ],
      "orientation_vector": [
        -0.0,
        1.0
      ],
      "half_bracket_size": 0.5000123298479746,
      "bond": [
        5,
        18
      ],
      "fragment": "F2",
      "backbone": true,
      "suspended_anchor_atom": null,
      "suspended_reason": null,
      "source_label": "F2/fragments[0]",
      "marker_id": "0",
      "side": "left",
      "connection_group": "$a",
      "marker_type_index": 2
    },
    {
      "id": 3,
      "bracket_kind": "backbone",
      "pairing_id": "F2/fragments[0]",
      "group_id": "$a:2",
      "ru_midpoint": [
        7.361001985459975,
        -0.4748939950260377
      ],
      "bond_midpoint": [
        8.227040555764368,
        -0.47489085955110744
      ],
      "orientation_vector": [
        0.0,
        1.0
      ],
      "half_bracket_size": 0.5000123298479746,
      "bond": [
        28,
        29
      ],
      "fragment": "F2",
      "backbone": true,
      "suspended_anchor_atom": null,
      "suspended_reason": null,
      "source_label": "F2/fragments[0]",
      "marker_id": "12",
      "side": "right",
      "connection_group": "$a",
      "marker_type_index": 2
    }
  ]
}
