
     RDKit          2D

  0  0  0  0  0  0  0  0  0  0999 V3000
M  V30 BEGIN CTAB
M  V30 COUNTS 16 15 1 0 0
M  V30 BEGIN ATOM
M  V30 1 H -1.299250 -0.448550 0.000000 0
M  V30 2 H 1.298764 0.051350 0.000000 0
M  V30 3 C -0.433245 0.051350 0.000000 0
M  V30 4 C 0.432759 -0.448550 0.000000 0
M  V30 5 C 0.432759 -1.448475 0.000000 0
M  V30 6 O -0.433307 -1.948406 0.000000 0
M  V30 7 O 1.298652 -1.948569 0.000000 0
M  V30 8 C 1.298652 -2.948494 0.000000 0
M  V30 9 C 2.164544 -3.448588 0.000000 0
M  V30 10 C 2.164371 -4.448612 0.000000 0
M  V30 11 C 3.030437 -4.948606 0.000000 0
M  V30 12 C 3.030263 -5.948631 0.000000 0
M  V30 13 C 3.896329 -6.448625 0.000000 0
M  V30 14 C 3.896156 -7.448650 0.000000 0
M  V30 15 C 4.762222 -7.948644 0.000000 0
M  V30 16 C 4.762048 -8.948668 0.000000 0
M  V30 END ATOM
M  V30 BEGIN BOND
M  V30 1 1 3 4
M  V30 2 1 4 5
M  V30 3 2 5 6
M  V30 4 1 5 7
M  V30 5 1 7 8
M  V30 6 1 8 9
M  V30 7 1 9 10
M  V30 8 1 10 11
M  V30 9 1 11 12
M  V30 10 1 12 13
M  V30 11 1 13 14
M  V30 12 1 14 15
M  V30 13 1 15 16
M  V30 14 1 1 3
M  V30 15 1 2 4
M  V30 END BOND
M  V30 BEGIN SGROUP
M  V30 1 SRU 0 ATOMS=(4 1 2 3 4) CBONDS=(2 14 15) -
M  V30 BRKXYZ=(9 -0.8662 0.3013 0 -0.8662 -0.6985 0 0 0 0) BRKXYZ=(9 0.8658 0.-
M  V30 3013 0 0.8658 -0.6985 0 0 0 0)
M  V30 END SGROUP
M  V30 END CTAB
M  END
>  <BIGSMILES_BRACKET_RECORDS_JSON>
{
  "records": [
    {
      "id": 0,
      "bracket_kind": "backbone",
      "pairing_id": "F1/fragments[0]",
      "group_id": "$a:2",
      "ru_midpoint": [
        -0.00023213162693480616,
        -0.19858112164951372
      ],
      "bond_midpoint": [
        -0.8662473940684197,
        -0.1985999999999999
      ],
      "orientation_vector": [
        0.0,
        1.0
      ],
      "half_bracket_size": 0.4999001600153621,
      "bond": [
        0,
        2
      ],
      "fragment": "F1",
      "backbone": true,
      "suspended_anchor_atom": null,
      "suspended_reason": null,
      "source_label": "F1/fragments[0]",
      "marker_id": "0",
      "side": "left",
      "connection_group": "$a",
      "marker_type_index": 2
    },
    {
      "id": 1,
      "bracket_kind": "backbone",
      "pairing_id": "F1/fragments[0]",
      "group_id": "$a:2",
      "ru_midpoint": [
        -0.00023213162693480616,
        -0.19858112164951372
      ],
      "bond_midpoint": [
        0.8657613241736279,
        -0.1985999999999999
      ],
      "orientation_vector": [
        0.0,
        1.0
      ],
      "half_bracket_size": 0.4999001600153621,
      "bond": [
        1,
        3
      ],
      "fragment": "F1",
      "backbone": true,
      "suspended_anchor_atom": null,
      "suspended_reason": null,
      "source_label": "F1/fragments[0]",
      "marker_id": "15",
      "side": "right",
      "connection_group": "$a",
      "marker_type_index": 2
    }
  ]
}
