
     RDKit          2D

  0  0  0  0  0  0  0  0  0  0999 V3000
M  V30 BEGIN CTAB
M  V30 COUNTS 20 21 1 0 0
M  V30 BEGIN ATOM
M  V30 1 H -5.433276 -0.131620 0.000000 0
M  V30 2 H 5.432759 -0.631648 0.000000 0
M  V30 3 C -4.433276 -0.631620 0.000000 0
M  V30 4 O -4.692106 0.334347 0.000000 0
M  V30 5 C -3.433276 -0.631620 0.000000 0
M  V30 6 C -2.933288 0.234384 0.000000 0
M  V30 7 C -1.933313 0.234384 0.000000 0
M  V30 8 C -1.433325 -0.631620 0.000000 0
M  V30 9 C -1.933313 -1.497624 0.000000 0
M  V30 10 C -2.933288 -1.497624 0.000000 0
M  V30 11 C -0.433325 -0.631620 0.000000 0
M  V30 12 O -0.174505 -1.597552 0.000000 0
M  V30 13 N 0.432651 -0.131648 0.000000 0
M  V30 14 C 1.432651 -0.131648 0.000000 0
M  V30 15 C 1.932678 0.734424 0.000000 0
M  V30 16 C 2.932732 0.734424 0.000000 0
M  V30 17 C 3.432759 -0.131648 0.000000 0
M  V30 18 C 2.932732 -0.997720 0.000000 0
M  V30 19 C 1.932678 -0.997720 0.000000 0
M  V30 20 N 4.432759 -0.131648 0.000000 0
M  V30 END ATOM
M  V30 BEGIN BOND
M  V30 1 2 3 4
M  V30 2 1 3 5
M  V30 3 2 5 6
M  V30 4 1 6 7
M  V30 5 2 7 8
M  V30 6 1 8 9
M  V30 7 2 9 10
M  V30 8 1 8 11
M  V30 9 2 11 12
M  V30 10 1 11 13
M  V30 11 1 13 14
M  V30 12 2 14 15
M  V30 13 1 15 16
M  V30 14 2 16 17
M  V30 15 1 17 18
M  V30 16 2 18 19
M  V30 17 1 17 20
M  V30 18 1 10 5
M  V30 19 1 19 14
M  V30 20 1 1 3
M  V30 21 1 2 20
M  V30 END BOND
M  V30 BEGIN SGROUP
M  V30 1 SRU 0 ATOMS=(4 1 2 3 20) CBONDS=(2 20 21) -
M  V30 BRKXYZ=(9 -4.9333 1.8504 0 -4.9333 -2.6137 0 0 0 0) BRKXYZ=(9 4.9328 1.-
M  V30 8504 0 4.9328 -2.6137 0 0 0 0)
M  V30 END SGROUP
M  V30 END CTAB
M  END
>  <BIGSMILES_BRACKET_RECORDS_JSON>
{
  "records": [
    {
      "id": 0,
      "bracket_kind": "backbone",
      "pairing_id": "F1/fragments[0]",
      "group_id": "<1:3",
      "ru_midpoint": [
        -0.00028671527682178066,
        -0.38164160567912875
      ],
      "bond_midpoint": [
        -4.933275682277819,
        -0.3816201306231424
      ],
      "orientation_vector": [
        0.0,
        1.0
      ],
      "half_bracket_size": 2.2320478220178384,
      "bond": [
        0,
        2
      ],
      "fragment": "F1",
      "backbone": true,
      "suspended_anchor_atom": null,
      "suspended_reason": null,
      "source_label": "F1/fragments[0]",
      "marker_id": "0",
      "side": "left",
      "connection_group": "<1",
      "marker_type_index": 3
    },
    {
      "id": 1,
      "bracket_kind": "backbone",
      "pairing_id": "F1/fragments[0]",
      "group_id": ">1:4",
      "ru_midpoint": [
        -0.00028671527682178066,
        -0.38164160567912875
      ],
      "bond_midpoint": [
        4.9327591257300725,
        -0.3816483614201216
      ],
      "orientation_vector": [
        0.0,
        1.0
      ],
      "half_bracket_size": 2.2320478220178384,
      "bond": [
        1,
        19
      ],
      "fragment": "F1",
      "backbone": true,
      "suspended_anchor_atom": null,
      "suspended_reason": null,
      "source_label": "F1/fragments[0]",
      "marker_id": "19",
      "side": "right",
      "connection_group": ">1",
      "marker_type_index": 4
    }
  ]
}
