
     RDKit          2D

  0  0  0  0  0  0  0  0  0  0999 V3000
M  V30 BEGIN CTAB
M  V30 COUNTS 16 15 1 0 0
M  V30 BEGIN ATOM
M  V30 1 H -1.299119 -0.448600 0.000000 0
M  V30 2 H 1.298721 0.051400 0.000000 0
M  V30 3 C -0.433173 0.051400 0.000000 0
M  V30 4 C 0.432774 -0.448600 0.000000 0
M  V30 5 C 0.432774 0.551332 0.000000 0
M  V30 6 C 0.432774 -1.448525 0.000000 0
M  V30 7 O -0.433292 -1.948456 0.000000 0
M  V30 8 O 1.298666 -1.948619 0.000000 0
M  V30 9 C 1.298666 -2.948544 0.000000 0
M  V30 10 C 2.164559 -3.448638 0.000000 0
M  V30 11 C 2.164559 -4.448562 0.000000 0
M  V30 12 C 3.030451 -4.948656 0.000000 0
M  V30 13 C 3.030451 -5.948581 0.000000 0
M  V30 14 C 3.896344 -6.448675 0.000000 0
M  V30 15 C 3.896170 -7.448700 0.000000 0
M  V30 16 C 4.762236 -7.948694 0.000000 0
M  V30 END ATOM
M  V30 BEGIN BOND
M  V30 1 1 3 4
M  V30 2 1 4 5
M  V30 3 1 4 6
M  V30 4 2 6 7
M  V30 5 1 6 8
M  V30 6 1 8 9
M  V30 7 1 9 10
M  V30 8 1 10 11
M  V30 9 1 11 12
M  V30 10 1 12 13
M  V30 11 1 13 14
M  V30 12 1 14 15
M  V30 13 1 15 16
M  V30 14 1 1 3
M  V30 15 1 2 4
M  V30 END BOND
M  V30 BEGIN SGROUP
M  V30 1 SRU 0 ATOMS=(4 1 2 3 4) CBONDS=(2 14 15) -
M  V30 BRKXYZ=(9 -0.8661 0.3014 0 -0.8661 -0.6986 0 0 0 0) BRKXYZ=(9 0.8657 0.-
M  V30 3014 0 0.8657 -0.6986 0 0 0 0)
M  V30 END SGROUP
M  V30 END CTAB
M  END
>  <BIGSMILES_BRACKET_RECORDS_JSON>
{
  "records": [
    {
      "id": 0,
      "bracket_kind": "backbone",
      "pairing_id": "F1/fragments[0]",
      "group_id": "$a:2",
      "ru_midpoint": [
        -0.0001994341802318278,
        -0.19859999999999975
      ],
      "bond_midpoint": [
        -0.8661460623685868,
        -0.19859999999999994
      ],
      "orientation_vector": [
        0.0,
        1.0
      ],
      "half_bracket_size": 0.500000157129195,
      "bond": [
        0,
        2
      ],
      "fragment": "F1",
      "backbone": true,
      "suspended_anchor_atom": null,
      "suspended_reason": null,
      "source_label": "F1/fragments[0]",
      "marker_id": "0",
      "side": "left",
      "connection_group": "$a",
      "marker_type_index": 2
    },
    {
      "id": 1,
      "bracket_kind": "backbone",
      "pairing_id": "F1/fragments[0]",
      "group_id": "$a:2",
      "ru_midpoint": [
        -0.0001994341802318278,
        -0.19859999999999975
      ],
      "bond_midpoint": [
        0.8657471940081227,
        -0.19859999999999994
      ],
      "orientation_vector": [
        0.0,
        1.0
      ],
      "half_bracket_size": 0.500000157129195,
      "bond": [
        1,
        3
      ],
      "fragment": "F1",
      "backbone": true,
      "suspended_anchor_atom": null,
      "suspended_reason": null,
      "source_label": "F1/fragments[0]",
      "marker_id": "15",
      "side": "right",
      "connection_group": "$a",
      "marker_type_index": 2
    }
  ]
}
