
     RDKit          2D

  0  0  0  0  0  0  0  0  0  0999 V3000
M  V30 BEGIN CTAB
M  V30 COUNTS 16 16 1 0 0
M  V30 BEGIN ATOM
M  V30 1 H -4.330297 -0.448685 0.000000 0
M  V30 2 H 4.329849 -0.448563 0.000000 0
M  V30 3 O -3.464293 0.051415 0.000000 0
M  V30 4 C -2.598288 -0.448685 0.000000 0
M  V30 5 C -1.732350 0.051415 0.000000 0
M  V30 6 O -0.866403 -0.448685 0.000000 0
M  V30 7 C -0.000465 0.051415 0.000000 0
M  V30 8 O -0.000534 1.051416 0.000000 0
M  V30 9 C 0.865565 -0.448577 0.000000 0
M  V30 10 C 1.731682 0.051485 0.000000 0
M  V30 11 C 2.597807 -0.448563 0.000000 0
M  V30 12 C 2.597815 -1.448673 0.000000 0
M  V30 13 C 1.731698 -1.948735 0.000000 0
M  V30 14 C 0.865573 -1.448688 0.000000 0
M  V30 15 C 3.463828 0.051444 0.000000 0
M  V30 16 O 3.463685 1.051445 0.000000 0
M  V30 END ATOM
M  V30 BEGIN BOND
M  V30 1 1 3 4
M  V30 2 1 4 5
M  V30 3 1 5 6
M  V30 4 1 6 7
M  V30 5 2 7 8
M  V30 6 1 7 9
M  V30 7 2 9 10
M  V30 8 1 10 11
M  V30 9 2 11 12
M  V30 10 1 12 13
M  V30 11 2 13 14
M  V30 12 1 11 15
M  V30 13 2 15 16
M  V30 14 1 14 9
M  V30 15 1 1 3
M  V30 16 1 2 15
M  V30 END BOND
M  V30 BEGIN SGROUP
M  V30 1 SRU 0 ATOMS=(4 1 2 3 15) CBONDS=(2 15 16) -
M  V30 BRKXYZ=(9 -3.8973 1.8016 0 -3.8973 -2.1989 0 0 0 0) BRKXYZ=(9 3.8968 1.-
M  V30 8017 0 3.8968 -2.1988 0 0 0 0)
M  V30 END SGROUP
M  V30 END CTAB
M  END
>  <BIGSMILES_BRACKET_RECORDS_JSON>
{
  "records": [
    {
      "id": 0,
      "bracket_kind": "backbone",
      "pairing_id": "F1/mergedFragments[0]",
      "group_id": "<1:3",
      "ru_midpoint": [
        0.37082378163610524,
        -0.5200363236128858
      ],
      "bond_midpoint": [
        -3.8972947814884935,
        -0.19863479660190936
      ],
      "orientation_vector": [
        0.0,
        1.0
      ],
      "half_bracket_size": 2.000220128041084,
      "bond": [
        0,
        2
      ],
      "fragment": "F1",
      "backbone": true,
      "suspended_anchor_atom": null,
      "suspended_reason": null,
      "source_label": "F1/mergedFragments[0]",
      "marker_id": "0",
      "side": "left",
      "connection_group": "<1",
      "marker_type_index": 3
    },
    {
      "id": 1,
      "bracket_kind": "backbone",
      "pairing_id": "F1/mergedFragments[0]",
      "group_id": ">1:4",
      "ru_midpoint": [
        0.37082378163610524,
        -0.5200363236128858
      ],
      "bond_midpoint": [
        3.896838309716744,
        -0.1985592343599506
      ],
      "orientation_vector": [
        0.0,
        1.0
      ],
      "half_bracket_size": 2.000220128041084,
      "bond": [
        1,
        14
      ],
      "fragment": "F1",
      "backbone": true,
      "suspended_anchor_atom": null,
      "suspended_reason": null,
      "source_label": "F1/mergedFragments[0]",
      "marker_id": "15",
      "side": "right",
      "connection_group": ">1",
      "marker_type_index": 4
    }
  ]
}
