
     RDKit          2D

  0  0  0  0  0  0  0  0  0  0999 V3000
M  V30 BEGIN CTAB
M  V30 COUNTS 11 10 1 0 0
M  V30 BEGIN ATOM
M  V30 1 H -3.897108 -0.448601 0.000000 0
M  V30 2 H 3.896793 0.051401 0.000000 0
M  V30 3 N -3.031067 0.051401 0.000000 0
M  V30 4 C -2.165026 -0.448601 0.000000 0
M  V30 5 C -1.298948 0.051401 0.000000 0
M  V30 6 C -0.432907 -0.448601 0.000000 0
M  V30 7 C 0.433055 0.051401 0.000000 0
M  V30 8 C 1.298980 -0.448601 0.000000 0
M  V30 9 C 2.164943 0.051401 0.000000 0
M  V30 10 C 3.030868 -0.448601 0.000000 0
M  V30 11 O 3.030859 -1.448603 0.000000 0
M  V30 END ATOM
M  V30 BEGIN BOND
M  V30 1 1 3 4
M  V30 2 1 4 5
M  V30 3 1 5 6
M  V30 4 1 6 7
M  V30 5 1 7 8
M  V30 6 1 8 9
M  V30 7 1 9 10
M  V30 8 2 10 11
M  V30 9 1 1 3
M  V30 10 1 2 10
M  V30 END BOND
M  V30 BEGIN SGROUP
M  V30 1 SRU 0 ATOMS=(4 1 2 3 10) CBONDS=(2 9 10) -
M  V30 BRKXYZ=(9 -3.4641 0.3014 0 -3.4641 -0.6986 0 0 0 0) BRKXYZ=(9 3.4638 0.-
M  V30 3014 0 3.4638 -0.6986 0 0 0 0)
M  V30 END SGROUP
M  V30 END CTAB
M  END
>  <BIGSMILES_BRACKET_RECORDS_JSON>
{
  "records": [
    {
      "id": 0,
      "bracket_kind": "backbone",
      "pairing_id": "F1/fragments[0]",
      "group_id": "<1:3",
      "ru_midpoint": [
        -8.288194976474594e-05,
        -0.19864335083571927
      ],
      "bond_midpoint": [
        -3.46408724873581,
        -0.1986
      ],
      "orientation_vector": [
        0.0,
        1.0
      ],
      "half_bracket_size": 0.5000012062947405,
      "bond": [
        0,
        2
      ],
      "fragment": "F1",
      "backbone": true,
      "suspended_anchor_atom": null,
      "suspended_reason": null,
      "source_label": "F1/fragments[0]",
      "marker_id": "0",
      "side": "left",
      "connection_group": "<1",
      "marker_type_index": 3
    },
    {
      "id": 1,
      "bracket_kind": "backbone",
      "pairing_id": "F1/fragments[0]",
      "group_id": ">1:4",
      "ru_midpoint": [
        -8.288194976474594e-05,
        -0.19864335083571927
      ],
      "bond_midpoint": [
        3.463830685782616,
        -0.19860000000000005
      ],
      "orientation_vector": [
        0.0,
        1.0
      ],
      "half_bracket_size": 0.5000012062947405,
      "bond": [
        1,
        9
      ],
      "fragment": "F1",
      "backbone": true,
      "suspended_anchor_atom": null,
      "suspended_reason": null,
      "source_label": "F1/fragments[0]",
      "marker_id": "10",
      "side": "right",
      "connection_group": ">1",
      "marker_type_index": 4
    }
  ]
}
