
     RDKit          2D

  0  0  0  0  0  0  0  0  0  0999 V3000
M  V30 BEGIN CTAB
M  V30 COUNTS 22 24 1 0 0
M  V30 BEGIN ATOM
M  V30 1 H -2.598265 0.051399 0.000000 0
M  V30 2 H 2.597866 0.051399 0.000000 0
M  V30 3 Si -1.732239 -0.448601 0.000000 0 VAL=4
M  V30 4 C -1.732239 0.551346 0.000000 0
M  V30 5 C -0.866363 1.051430 0.000000 0
M  V30 6 C -0.866363 2.051376 0.000000 0
M  V30 7 C -1.732413 2.551337 0.000000 0
M  V30 8 C -2.598290 2.051253 0.000000 0
M  V30 9 C -2.598290 1.051306 0.000000 0
M  V30 10 C -1.732239 -1.448547 0.000000 0
M  V30 11 C -2.598290 -1.948532 0.000000 0
M  V30 12 C -2.598116 -2.948578 0.000000 0
M  V30 13 C -1.732239 -3.448439 0.000000 0
M  V30 14 C -0.866189 -2.948454 0.000000 0
M  V30 15 C -0.866189 -1.948508 0.000000 0
M  V30 16 C -0.866214 0.051399 0.000000 0
M  V30 17 C -0.866214 1.051387 0.000000 0
M  V30 18 C -0.000200 1.551380 0.000000 0
M  V30 19 C 0.865815 1.051387 0.000000 0
M  V30 20 C 0.865815 0.051399 0.000000 0
M  V30 21 C -0.000200 -0.448594 0.000000 0
M  V30 22 O 1.731840 -0.448601 0.000000 0
M  V30 END ATOM
M  V30 BEGIN BOND
M  V30 1 1 3 4
M  V30 2 2 4 5
M  V30 3 1 5 6
M  V30 4 2 6 7
M  V30 5 1 7 8
M  V30 6 2 8 9
M  V30 7 1 3 10
M  V30 8 2 10 11
M  V30 9 1 11 12
M  V30 10 2 12 13
M  V30 11 1 13 14
M  V30 12 2 14 15
M  V30 13 1 3 16
M  V30 14 2 16 17
M  V30 15 1 17 18
M  V30 16 2 18 19
M  V30 17 1 19 20
M  V30 18 2 20 21
M  V30 19 1 20 22
M  V30 20 1 9 4
M  V30 21 1 15 10
M  V30 22 1 21 16
M  V30 23 1 1 3
M  V30 24 1 2 22
M  V30 END BOND
M  V30 BEGIN SGROUP
M  V30 1 SRU 0 ATOMS=(4 1 2 3 22) CBONDS=(2 23 24) -
M  V30 BRKXYZ=(9 -2.1653 1.8014 0 -2.1653 -2.1986 0 0 0 0) BRKXYZ=(9 2.1649 1.-
M  V30 8014 0 2.1649 -2.1986 0 0 0 0)
M  V30 END SGROUP
M  V30 END CTAB
M  END
>  <BIGSMILES_BRACKET_RECORDS_JSON>
{
  "records": [
    {
      "id": 0,
      "bracket_kind": "backbone",
      "pairing_id": "F1/fragments[0]",
      "group_id": "<1:3",
      "ru_midpoint": [
        -0.00019957967217720807,
        0.7513958056844654
      ],
      "bond_midpoint": [
        -2.1652521260713598,
        -0.19860060499926835
      ],
      "orientation_vector": [
        0.0,
        1.0
      ],
      "half_bracket_size": 1.9999809484198978,
      "bond": [
        0,
        2
      ],
      "fragment": "F1",
      "backbone": true,
      "suspended_anchor_atom": null,
      "suspended_reason": null,
      "source_label": "F1/fragments[0]",
      "marker_id": "0",
      "side": "left",
      "connection_group": "<1",
      "marker_type_index": 3
    },
    {
      "id": 1,
      "bracket_kind": "backbone",
      "pairing_id": "F1/fragments[0]",
      "group_id": ">1:4",
      "ru_midpoint": [
        -0.00019957967217720807,
        0.7513958056844654
      ],
      "bond_midpoint": [
        2.1648528939810316,
        -0.19860060499926724
      ],
      "orientation_vector": [
        0.0,
        1.0
      ],
      "half_bracket_size": 1.9999809484198978,
      "bond": [
        1,
        21
      ],
      "fragment": "F1",
      "backbone": true,
      "suspended_anchor_atom": null,
      "suspended_reason": null,
      "source_label": "F1/fragments[0]",
      "marker_id": "21",
      "side": "right",
      "connection_group": ">1",
      "marker_type_index": 4
    }
  ]
}
