
     RDKit          2D

  0  0  0  0  0  0  0  0  0  0999 V3000
M  V30 BEGIN CTAB
M  V30 COUNTS 14 14 1 0 0
M  V30 BEGIN ATOM
M  V30 1 H -1.299520 -0.448553 0.000000 0
M  V30 2 H 1.298876 0.051353 0.000000 0
M  V30 3 C -0.433388 0.051353 0.000000 0
M  V30 4 C 0.432744 -0.448553 0.000000 0
M  V30 5 C 0.432744 -1.448355 0.000000 0
M  V30 6 C 1.298945 -1.948489 0.000000 0
M  V30 7 C 1.298745 -2.948491 0.000000 0
M  V30 8 C 0.432743 -3.448559 0.000000 0
M  V30 9 C 0.432743 -4.448361 0.000000 0
M  V30 10 C 1.298944 -4.948495 0.000000 0
M  V30 11 C -0.433259 -4.948430 0.000000 0
M  V30 12 C -0.433060 -5.948432 0.000000 0
M  V30 13 C -0.433258 -2.948426 0.000000 0
M  V30 14 C -0.433058 -1.948424 0.000000 0
M  V30 END ATOM
M  V30 BEGIN BOND
M  V30 1 1 3 4
M  V30 2 1 4 5
M  V30 3 2 5 6
M  V30 4 1 6 7
M  V30 5 2 7 8
M  V30 6 1 8 9
M  V30 7 1 9 10
M  V30 8 1 9 11
M  V30 9 1 11 12
M  V30 10 1 8 13
M  V30 11 2 13 14
M  V30 12 1 14 5
M  V30 13 1 1 3
M  V30 14 1 2 4
M  V30 END BOND
M  V30 BEGIN SGROUP
M  V30 1 SRU 0 ATOMS=(4 1 2 3 4) CBONDS=(2 13 14) -
M  V30 BRKXYZ=(9 -0.8665 0.3013 0 -0.8665 -0.6985 0 0 0 0) BRKXYZ=(9 0.8658 0.-
M  V30 3013 0 0.8658 -0.6985 0 0 0 0)
M  V30 END SGROUP
M  V30 END CTAB
M  END
>  <BIGSMILES_BRACKET_RECORDS_JSON>
{
  "records": [
    {
      "id": 0,
      "bracket_kind": "backbone",
      "pairing_id": "F1/fragments[0]",
      "group_id": "$a:2",
      "ru_midpoint": [
        -0.0002912787420603635,
        -0.19854697026735751
      ],
      "bond_midpoint": [
        -0.866454012091822,
        -0.19859999999999967
      ],
      "orientation_vector": [
        0.0,
        1.0
      ],
      "half_bracket_size": 0.4999067114893849,
      "bond": [
        0,
        2
      ],
      "fragment": "F1",
      "backbone": true,
      "suspended_anchor_atom": null,
      "suspended_reason": null,
      "source_label": "F1/fragments[0]",
      "marker_id": "0",
      "side": "left",
      "connection_group": "$a",
      "marker_type_index": 2
    },
    {
      "id": 1,
      "bracket_kind": "backbone",
      "pairing_id": "F1/fragments[0]",
      "group_id": "$a:2",
      "ru_midpoint": [
        -0.0002912787420603635,
        -0.19854697026735751
      ],
      "bond_midpoint": [
        0.8658102169539308,
        -0.19859999999999967
      ],
      "orientation_vector": [
        0.0,
        1.0
      ],
      "half_bracket_size": 0.4999067114893849,
      "bond": [
        1,
        3
      ],
      "fragment": "F1",
      "backbone": true,
      "suspended_anchor_atom": null,
      "suspended_reason": null,
      "source_label": "F1/fragments[0]",
      "marker_id": "13",
      "side": "right",
      "connection_group": "$a",
      "marker_type_index": 2
    }
  ]
}
