
     RDKit          2D

  0  0  0  0  0  0  0  0  0  0999 V3000
M  V30 BEGIN CTAB
M  V30 COUNTS 13 13 1 0 0
M  V30 BEGIN ATOM
M  V30 1 H -1.299139 -0.448626 0.000000 0
M  V30 2 H 1.298847 0.051426 0.000000 0
M  V30 3 C -0.433144 0.051426 0.000000 0
M  V30 4 C 0.432852 -0.448626 0.000000 0
M  V30 5 C 0.432852 -1.448551 0.000000 0
M  V30 6 C 1.298918 -1.948482 0.000000 0
M  V30 7 C 2.164983 -1.448488 0.000000 0
M  V30 8 C 1.298918 -2.948407 0.000000 0
M  V30 9 C 0.433099 -3.448774 0.000000 0
M  V30 10 O 0.433198 -4.448525 0.000000 0
M  V30 11 C -0.432867 -4.948519 0.000000 0
M  V30 12 C -0.433141 -2.948743 0.000000 0
M  V30 13 C -0.433041 -1.948645 0.000000 0
M  V30 END ATOM
M  V30 BEGIN BOND
M  V30 1 1 3 4
M  V30 2 1 4 5
M  V30 3 2 5 6
M  V30 4 1 6 7
M  V30 5 1 6 8
M  V30 6 2 8 9
M  V30 7 1 9 10
M  V30 8 1 10 11
M  V30 9 1 9 12
M  V30 10 2 12 13
M  V30 11 1 13 5
M  V30 12 1 1 3
M  V30 13 1 2 4
M  V30 END BOND
M  V30 BEGIN SGROUP
M  V30 1 SRU 0 ATOMS=(4 1 2 3 4) CBONDS=(2 12 13) -
M  V30 BRKXYZ=(9 -0.8661 0.3015 0 -0.8661 -0.6987 0 0 0 0) BRKXYZ=(9 0.8658 0.-
M  V30 3015 0 0.8658 -0.6987 0 0 0 0)
M  V30 END SGROUP
M  V30 END CTAB
M  END
>  <BIGSMILES_BRACKET_RECORDS_JSON>
{
  "records": [
    {
      "id": 0,
      "bracket_kind": "backbone",
      "pairing_id": "F1/fragments[0]",
      "group_id": "$a:2",
      "ru_midpoint": [
        -0.00015924434295611078,
        -0.19862320394933236
      ],
      "bond_midpoint": [
        -0.8661411529800738,
        -0.19859999999999967
      ],
      "orientation_vector": [
        0.0,
        1.0
      ],
      "half_bracket_size": 0.5000524970442966,
      "bond": [
        0,
        2
      ],
      "fragment": "F1",
      "backbone": true,
      "suspended_anchor_atom": null,
      "suspended_reason": null,
      "source_label": "F1/fragments[0]",
      "marker_id": "0",
      "side": "left",
      "connection_group": "$a",
      "marker_type_index": 2
    },
    {
      "id": 1,
      "bracket_kind": "backbone",
      "pairing_id": "F1/fragments[0]",
      "group_id": "$a:2",
      "ru_midpoint": [
        -0.00015924434295611078,
        -0.19862320394933236
      ],
      "bond_midpoint": [
        0.8658494476869905,
        -0.19859999999999967
      ],
      "orientation_vector": [
        0.0,
        1.0
      ],
      "half_bracket_size": 0.5000524970442966,
      "bond": [
        1,
        3
      ],
      "fragment": "F1",
      "backbone": true,
      "suspended_anchor_atom": null,
      "suspended_reason": null,
      "source_label": "F1/fragments[0]",
      "marker_id": "12",
      "side": "right",
      "connection_group": "$a",
      "marker_type_index": 2
    }
  ]
}
