
     RDKit          2D

  0  0  0  0  0  0  0  0  0  0999 V3000
M  V30 BEGIN CTAB
M  V30 COUNTS 22 23 1 0 0
M  V30 BEGIN ATOM
M  V30 1 H -6.165174 -0.381558 0.000000 0
M  V30 2 H 6.298763 -0.881558 0.000000 0
M  V30 3 O -5.299178 -0.881661 0.000000 0
M  V30 4 C -4.433182 -0.381558 0.000000 0
M  V30 5 C -3.433182 -0.381558 0.000000 0
M  V30 6 C -2.933186 0.484461 0.000000 0
M  V30 7 C -1.933194 0.484461 0.000000 0
M  V30 8 C -1.433198 -0.381558 0.000000 0
M  V30 9 C -1.933194 -1.247576 0.000000 0
M  V30 10 C -2.933186 -1.247576 0.000000 0
M  V30 11 C -0.433198 -0.381558 0.000000 0
M  V30 12 O 0.432798 0.118546 0.000000 0
M  V30 13 C 1.298813 -0.381558 0.000000 0
M  V30 14 O 1.039947 -1.347477 0.000000 0
M  V30 15 C 2.298813 -0.381558 0.000000 0
M  V30 16 C 2.798801 0.484446 0.000000 0
M  V30 17 C 3.798776 0.484446 0.000000 0
M  V30 18 C 4.298763 -0.381558 0.000000 0
M  V30 19 C 3.798776 -1.247561 0.000000 0
M  V30 20 C 2.798801 -1.247561 0.000000 0
M  V30 21 C 5.298763 -0.381558 0.000000 0
M  V30 22 O 5.557613 -1.347597 0.000000 0
M  V30 END ATOM
M  V30 BEGIN BOND
M  V30 1 1 3 4
M  V30 2 1 4 5
M  V30 3 1 5 6
M  V30 4 1 6 7
M  V30 5 1 7 8
M  V30 6 1 8 9
M  V30 7 1 9 10
M  V30 8 1 8 11
M  V30 9 1 11 12
M  V30 10 1 12 13
M  V30 11 2 13 14
M  V30 12 1 13 15
M  V30 13 2 15 16
M  V30 14 1 16 17
M  V30 15 2 17 18
M  V30 16 1 18 19
M  V30 17 2 19 20
M  V30 18 1 18 21
M  V30 19 2 21 22
M  V30 20 1 10 5
M  V30 21 1 20 15
M  V30 22 1 1 3
M  V30 23 1 2 21
M  V30 END BOND
M  V30 BEGIN SGROUP
M  V30 1 SRU 0 ATOMS=(4 1 2 3 21) CBONDS=(2 22 23) -
M  V30 BRKXYZ=(9 -5.7322 1.1004 0 -5.7322 -2.3636 0 0 0 0) BRKXYZ=(9 5.7988 1.-
M  V30 1005 0 5.7988 -2.3636 0 0 0 0)
M  V30 END SGROUP
M  V30 END CTAB
M  END
>  <BIGSMILES_BRACKET_RECORDS_JSON>
{
  "records": [
    {
      "id": 0,
      "bracket_kind": "backbone",
      "pairing_id": "F1/mergedFragments[0]",
      "group_id": "<1:3",
      "ru_midpoint": [
        0.16987880671501093,
        -0.35654671858857295
      ],
      "bond_midpoint": [
        -5.732175652311499,
        -0.6316092317354436
      ],
      "orientation_vector": [
        0.0,
        1.0
      ],
      "half_bracket_size": 1.7320369269417748,
      "bond": [
        0,
        2
      ],
      "fragment": "F1",
      "backbone": true,
      "suspended_anchor_atom": null,
      "suspended_reason": null,
      "source_label": "F1/mergedFragments[0]",
      "marker_id": "0",
      "side": "left",
      "connection_group": "<1",
      "marker_type_index": 3
    },
    {
      "id": 1,
      "bracket_kind": "backbone",
      "pairing_id": "F1/mergedFragments[0]",
      "group_id": ">1:4",
      "ru_midpoint": [
        0.16987880671501093,
        -0.35654671858857295
      ],
      "bond_midpoint": [
        5.798763248029205,
        -0.6315576121126734
      ],
      "orientation_vector": [
        0.0,
        1.0
      ],
      "half_bracket_size": 1.7320369269417748,
      "bond": [
        1,
        20
      ],
      "fragment": "F1",
      "backbone": true,
      "suspended_anchor_atom": null,
      "suspended_reason": null,
      "source_label": "F1/mergedFragments[0]",
      "marker_id": "21",
      "side": "right",
      "connection_group": ">1",
      "marker_type_index": 4
    }
  ]
}
