
     RDKit          2D

  0  0  0  0  0  0  0  0  0  0999 V3000
M  V30 BEGIN CTAB
M  V30 COUNTS 32 32 3 0 0
M  V30 BEGIN ATOM
M  V30 1 H -10.794844 -0.515569 0.000000 0
M  V30 2 H 10.660435 0.484332 0.000000 0
M  V30 3 C -9.794844 -0.015569 0.000000 0
M  V30 4 O -10.053646 -0.981429 0.000000 0
M  V30 5 C -8.794844 -0.015569 0.000000 0
M  V30 6 C -8.294823 -0.881632 0.000000 0
M  V30 7 C -7.294779 -0.881632 0.000000 0
M  V30 8 C -6.794758 -0.015569 0.000000 0
M  V30 9 C -7.294779 0.850494 0.000000 0
M  V30 10 C -8.294823 0.850494 0.000000 0
M  V30 11 C -5.794758 -0.015569 0.000000 0
M  V30 12 O -5.535975 -0.981505 0.000000 0
M  V30 13 O -4.928753 0.484332 0.000000 0
M  V30 14 C -4.062757 -0.015569 0.000000 0
M  V30 15 C -3.196753 0.484332 0.000000 0
M  V30 16 C -2.330757 -0.015569 0.000000 0
M  V30 17 C -1.464752 0.484332 0.000000 0
M  V30 18 O -0.598641 -0.015569 0.000000 0
M  V30 19 C 0.267442 0.484332 0.000000 0
M  V30 20 O 0.267452 1.484334 0.000000 0
M  V30 21 C 1.133425 -0.015569 0.000000 0
M  V30 22 C 1.999446 0.484332 0.000000 0
M  V30 23 C 2.865545 -0.015569 0.000000 0
M  V30 24 C 3.731680 0.484332 0.000000 0
M  V30 25 C 4.597779 -0.015569 0.000000 0
M  V30 26 O 4.597720 -1.015571 0.000000 0
M  V30 27 O 5.464114 0.484332 0.000000 0
M  V30 28 C 6.330213 -0.015569 0.000000 0
M  V30 29 C 7.196234 0.484332 0.000000 0
M  V30 30 C 8.062217 -0.015569 0.000000 0
M  V30 31 C 8.928237 0.484332 0.000000 0
M  V30 32 O 9.794336 -0.015569 0.000000 0
M  V30 END ATOM
M  V30 BEGIN BOND
M  V30 1 2 3 4
M  V30 2 1 3 5
M  V30 3 2 5 6
M  V30 4 1 6 7
M  V30 5 2 7 8
M  V30 6 1 8 9
M  V30 7 2 9 10
M  V30 8 1 8 11
M  V30 9 2 11 12
M  V30 10 1 11 13
M  V30 11 1 13 14
M  V30 12 1 14 15
M  V30 13 1 15 16
M  V30 14 1 16 17
M  V30 15 1 17 18
M  V30 16 1 10 5
M  V30 17 2 19 20
M  V30 18 1 19 21
M  V30 19 1 21 22
M  V30 20 1 22 23
M  V30 21 1 23 24
M  V30 22 1 24 25
M  V30 23 2 25 26
M  V30 24 1 25 27
M  V30 25 1 27 28
M  V30 26 1 28 29
M  V30 27 1 29 30
M  V30 28 1 30 31
M  V30 29 1 31 32
M  V30 30 1 18 19
M  V30 31 1 1 3
M  V30 32 1 2 32
M  V30 END BOND
M  V30 BEGIN SGROUP
M  V30 1 SRU 0 ATOMS=(4 1 3 18 19) CBONDS=(2 30 31) -
M  V30 BRKXYZ=(9 -10.2948 1.4666 0 -10.2948 -1.9977 0 0 0 0) BRKXYZ=(9 -0.1656-
M  V30  1.9665 0 -0.1656 -1.4977 0 0 0 0)
M  V30 2 SRU 0 ATOMS=(4 2 18 19 32) CBONDS=(2 30 32) -
M  V30 BRKXYZ=(9 -0.1656 -1.4977 0 -0.1656 1.9665 0 0 0 0) BRKXYZ=(9 10.2274 --
M  V30 1.4977 0 10.2274 1.9665 0 0 0 0)
M  V30 3 SRU 0 ATOMS=(4 1 2 3 32) CBONDS=(2 31 32) -
M  V30 BRKXYZ=(9 -10.2948 2.2343 0 -10.2948 -2.7655 0 0 0 0) BRKXYZ=(9 10.2274-
M  V30  2.7343 0 10.2274 -2.2655 0 0 0 0)
M  V30 END SGROUP
M  V30 END CTAB
M  END
>  <BIGSMILES_BRACKET_RECORDS_JSON>
{
  "records": [
    {
      "id": 0,
      "bracket_kind": "backbone",
      "pairing_id": "F1/fragments[0]",
      "group_id": "<1:3",
      "ru_midpoint": [
        -5.650375523028685,
        -0.359343531211906
      ],
      "bond_midpoint": [
        -10.294844461908703,
        -0.2655685812157449
      ],
      "orientation_vector": [
        0.0,
        1.0
      ],
      "half_bracket_size": 1.7321259951369692,
      "bond": [
        0,
        2
      ],
      "fragment": "F1",
      "backbone": true,
      "suspended_anchor_atom": null,
      "suspended_reason": null,
      "source_label": "F1/fragments[0]",
      "marker_id": "0",
      "side": "left",
      "connection_group": "<1",
      "marker_type_index": 3
    },
    {
      "id": 1,
      "bracket_kind": "backbone",
      "pairing_id": "F1/fragments[0]",
      "group_id": ">1:4",
      "ru_midpoint": [
        -5.650375523028685,
        -0.359343531211906
      ],
      "bond_midpoint": [
        -0.16559912134008314,
        0.23438149879193704
      ],
      "orientation_vector": [
        0.0,
        1.0
      ],
      "half_bracket_size": 1.7321259951369692,
      "bond": [
        17,
        18
      ],
      "fragment": "F1",
      "backbone": true,
      "suspended_anchor_atom": null,
      "suspended_reason": null,
      "source_label": "F1/fragments[0]",
      "marker_id": "17",
      "side": "right",
      "connection_group": ">1",
      "marker_type_index": 4
    },
    {
      "id": 2,
      "bracket_kind": "backbone",
      "pairing_id": "F1/fragments[1]",
      "group_id": "<1:3",
      "ru_midpoint": [
        5.030898784657042,
        0.23439252082262385
      ],
      "bond_midpoint": [
        -0.16559912134008314,
        0.23438149879193704
      ],
      "orientation_vector": [
        0.0,
        -1.0
      ],
      "half_bracket_size": 1.7321259951369692,
      "bond": [
        17,
        18
      ],
      "fragment": "F1",
      "backbone": true,
      "suspended_anchor_atom": null,
      "suspended_reason": null,
      "source_label": "F1/fragments[1]",
      "marker_id": "0",
      "side": "left",
      "connection_group": "<1",
      "marker_type_index": 3
    },
    {
      "id": 3,
      "bracket_kind": "backbone",
      "pairing_id": "F1/fragments[1]",
      "group_id": ">1:4",
      "ru_midpoint": [
        5.030898784657042,
        0.23439252082262385
      ],
      "bond_midpoint": [
        10.227385291940838,
        0.23438107887445203
      ],
      "orientation_vector": [
        0.0,
        -1.0
      ],
      "half_bracket_size": 1.7321259951369692,
      "bond": [
        1,
        31
      ],
      "fragment": "F1",
      "backbone": true,
      "suspended_anchor_atom": null,
      "suspended_reason": null,
      "source_label": "F1/fragments[1]",
      "marker_id": "15",
      "side": "right",
      "connection_group": ">1",
      "marker_type_index": 4
    },
    {
      "id": 4,
      "bracket_kind": "backbone",
      "pairing_id": "F1/connected",
      "group_id": "$overall",
      "ru_midpoint": [
        -0.18163765739327875,
        -0.3706774959596193
      ],
      "bond_midpoint": [
        -10.294844461908703,
        -0.2655685812157449
      ],
      "orientation_vector": [
        0.0,
        1.0
      ],
      "half_bracket_size": 2.499904998052624,
      "bond": [
        0,
        2
      ],
      "fragment": "F1",
      "backbone": true,
      "suspended_anchor_atom": null,
      "suspended_reason": null,
      "source_label": "F1/connected",
      "marker_id": "connected-overall-left",
      "side": "left",
      "connection_group": "$overall",
      "marker_type_index": null
    },
    {
      "id": 5,
      "bracket_kind": "backbone",
      "pairing_id": "F1/connected",
      "group_id": "$overall",
      "ru_midpoint": [
        -0.18163765739327875,
        -0.3706774959596193
      ],
      "bond_midpoint": [
        10.227385291940838,
        0.23438107887445203
      ],
      "orientation_vector": [
        0.0,
        1.0
      ],
      "half_bracket_size": 2.499904998052624,
      "bond": [
        1,
        31
      ],
      "fragment": "F1",
      "backbone": true,
      "suspended_anchor_atom": null,
      "suspended_reason": null,
      "source_label": "F1/connected",
      "marker_id": "connected-overall-right",
      "side": "right",
      "connection_group": "$overall",
      "marker_type_index": null
    }
  ]
}
