
     RDKit          2D

  0  0  0  0  0  0  0  0  0  0999 V3000
M  V30 BEGIN CTAB
M  V30 COUNTS 11 11 1 0 0
M  V30 BEGIN ATOM
M  V30 1 H -1.299145 -0.448604 0.000000 0
M  V30 2 H 1.298732 0.051404 0.000000 0
M  V30 3 C -0.433186 0.051404 0.000000 0
M  V30 4 C 0.432773 -0.448604 0.000000 0
M  V30 5 C 0.432773 -1.448406 0.000000 0
M  V30 6 C -0.433128 -1.948713 0.000000 0
M  V30 7 Cl -1.299230 -1.448817 0.000000 0
M  V30 8 C -0.432728 -2.948714 0.000000 0
M  V30 9 C 0.433174 -3.448610 0.000000 0
M  V30 10 C 1.299276 -2.948303 0.000000 0
M  V30 11 C 1.298875 -1.948301 0.000000 0
M  V30 END ATOM
M  V30 BEGIN BOND
M  V30 1 1 3 4
M  V30 2 1 4 5
M  V30 3 2 5 6
M  V30 4 1 6 7
M  V30 5 1 6 8
M  V30 6 2 8 9
M  V30 7 1 9 10
M  V30 8 2 10 11
M  V30 9 1 11 5
M  V30 10 1 1 3
M  V30 11 1 2 4
M  V30 END BOND
M  V30 BEGIN SGROUP
M  V30 1 SRU 0 ATOMS=(4 1 2 3 4) CBONDS=(2 10 11) -
M  V30 BRKXYZ=(9 -0.8662 0.3014 0 -0.8662 -0.6986 0 0 0 0) BRKXYZ=(9 0.8658 0.-
M  V30 3014 0 0.8658 -0.6986 0 0 0 0)
M  V30 END SGROUP
M  V30 END CTAB
M  END
>  <BIGSMILES_BRACKET_RECORDS_JSON>
{
  "records": [
    {
      "id": 0,
      "bracket_kind": "backbone",
      "pairing_id": "F1/fragments[0]",
      "group_id": "$a:2",
      "ru_midpoint": [
        -0.00020468226957071067,
        -0.19859697003048823
      ],
      "bond_midpoint": [
        -0.866165542113402,
        -0.19860000000000033
      ],
      "orientation_vector": [
        0.0,
        1.0
      ],
      "half_bracket_size": 0.5000070589092331,
      "bond": [
        0,
        2
      ],
      "fragment": "F1",
      "backbone": true,
      "suspended_anchor_atom": null,
      "suspended_reason": null,
      "source_label": "F1/fragments[0]",
      "marker_id": "0",
      "side": "left",
      "connection_group": "$a",
      "marker_type_index": 2
    },
    {
      "id": 1,
      "bracket_kind": "backbone",
      "pairing_id": "F1/fragments[0]",
      "group_id": "$a:2",
      "ru_midpoint": [
        -0.00020468226957071067,
        -0.19859697003048823
      ],
      "bond_midpoint": [
        0.8657526788669532,
        -0.19860000000000033
      ],
      "orientation_vector": [
        0.0,
        1.0
      ],
      "half_bracket_size": 0.5000070589092331,
      "bond": [
        1,
        3
      ],
      "fragment": "F1",
      "backbone": true,
      "suspended_anchor_atom": null,
      "suspended_reason": null,
      "source_label": "F1/fragments[0]",
      "marker_id": "10",
      "side": "right",
      "connection_group": "$a",
      "marker_type_index": 2
    }
  ]
}
