
     RDKit          2D

  0  0  0  0  0  0  0  0  0  0999 V3000
M  V30 BEGIN CTAB
M  V30 COUNTS 41 46 1 0 0
M  V30 BEGIN ATOM
M  V30 1 H -10.092475 -0.530007 0.000000 0
M  V30 2 H 10.092085 -0.531640 0.000000 0
M  V30 3 C -9.226479 -1.030107 0.000000 0
M  V30 4 C -8.360483 -0.530007 0.000000 0
M  V30 5 N -7.369630 -0.664954 0.000000 0
M  V30 6 C -6.679351 0.057795 0.000000 0
M  V30 7 O -6.857604 1.041111 0.000000 0
M  V30 8 C -5.777509 -0.377526 0.000000 0
M  V30 9 C -5.913402 -1.367610 0.000000 0
M  V30 10 C -6.897372 -1.546728 0.000000 0
M  V30 11 O -7.331403 -2.446353 0.000000 0
M  V30 12 C -5.122185 -1.980765 0.000000 0
M  V30 13 C -4.197703 -1.600589 0.000000 0
M  V30 14 C -4.061136 -0.611093 0.000000 0
M  V30 15 C -4.852875 0.002280 0.000000 0
M  V30 16 O -3.135188 -0.233443 0.000000 0
M  V30 17 C -2.135188 -0.233443 0.000000 0
M  V30 18 C -1.635000 0.632907 0.000000 0
M  V30 19 C -0.634624 0.632907 0.000000 0
M  V30 20 C -0.134436 -0.233443 0.000000 0
M  V30 21 C -0.634624 -1.099794 0.000000 0
M  V30 22 C -1.635000 -1.099794 0.000000 0
M  V30 23 O 0.865564 -0.233443 0.000000 0
M  V30 24 C 1.865564 -0.233443 0.000000 0
M  V30 25 C 2.365752 0.632907 0.000000 0
M  V30 26 C 3.366127 0.632907 0.000000 0
M  V30 27 C 3.866315 -0.233443 0.000000 0
M  V30 28 C 3.366127 -1.099794 0.000000 0
M  V30 29 C 2.365752 -1.099794 0.000000 0
M  V30 30 O 4.866315 -0.233443 0.000000 0
M  V30 31 C 5.791661 -0.612567 0.000000 0
M  V30 32 C 5.927983 -1.603033 0.000000 0
M  V30 33 C 6.852552 -1.983222 0.000000 0
M  V30 34 C 7.644559 -1.369409 0.000000 0
M  V30 35 C 8.628697 -1.548589 0.000000 0
M  V30 36 O 9.062570 -2.448368 0.000000 0
M  V30 37 N 9.101290 -0.667011 0.000000 0
M  V30 38 C 8.410198 0.054792 0.000000 0
M  V30 39 O 8.588740 1.039580 0.000000 0
M  V30 40 C 7.508263 -0.379143 0.000000 0
M  V30 41 C 6.584863 -0.001621 0.000000 0
M  V30 END ATOM
M  V30 BEGIN BOND
M  V30 1 1 3 4
M  V30 2 1 4 5
M  V30 3 1 5 6
M  V30 4 2 6 7
M  V30 5 1 6 8
M  V30 6 2 8 9
M  V30 7 1 9 10
M  V30 8 2 10 11
M  V30 9 1 9 12
M  V30 10 2 12 13
M  V30 11 1 13 14
M  V30 12 2 14 15
M  V30 13 1 14 16
M  V30 14 1 16 17
M  V30 15 2 17 18
M  V30 16 1 18 19
M  V30 17 2 19 20
M  V30 18 1 20 21
M  V30 19 2 21 22
M  V30 20 1 20 23
M  V30 21 1 23 24
M  V30 22 2 24 25
M  V30 23 1 25 26
M  V30 24 2 26 27
M  V30 25 1 27 28
M  V30 26 2 28 29
M  V30 27 1 27 30
M  V30 28 1 30 31
M  V30 29 2 31 32
M  V30 30 1 32 33
M  V30 31 2 33 34
M  V30 32 1 34 35
M  V30 33 2 35 36
M  V30 34 1 35 37
M  V30 35 1 37 38
M  V30 36 2 38 39
M  V30 37 1 38 40
M  V30 38 2 40 41
M  V30 39 1 10 5
M  V30 40 1 15 8
M  V30 41 1 22 17
M  V30 42 1 29 24
M  V30 43 1 41 31
M  V30 44 1 40 34
M  V30 45 1 1 3
M  V30 46 1 2 37
M  V30 END BOND
M  V30 BEGIN SGROUP
M  V30 1 SRU 0 ATOMS=(4 1 2 3 37) CBONDS=(2 45 46) -
M  V30 BRKXYZ=(9 -9.6595 1.8361 0 -9.6595 -3.3962 0 0 0 0) BRKXYZ=(9 9.5967 2.-
M  V30 0168 0 9.5967 -3.2155 0 0 0 0)
M  V30 END SGROUP
M  V30 END CTAB
M  END
>  <BIGSMILES_BRACKET_RECORDS_JSON>
{
  "records": [
    {
      "id": 0,
      "bracket_kind": "backbone",
      "pairing_id": "F1/mergedFragments[0]",
      "group_id": "<1:3",
      "ru_midpoint": [
        0.29661197478292767,
        -0.6033002292021574
      ],
      "bond_midpoint": [
        -9.659477143235238,
        -0.7800574172782442
      ],
      "orientation_vector": [
        0.0,
        1.0
      ],
      "half_bracket_size": 2.6161292747134564,
      "bond": [
        0,
        2
      ],
      "fragment": "F1",
      "backbone": true,
      "suspended_anchor_atom": null,
      "suspended_reason": null,
      "source_label": "F1/mergedFragments[0]",
      "marker_id": "0",
      "side": "left",
      "connection_group": "<1",
      "marker_type_index": 3
    },
    {
      "id": 1,
      "bracket_kind": "backbone",
      "pairing_id": "F1/mergedFragments[0]",
      "group_id": ">1:4",
      "ru_midpoint": [
        0.29661197478292767,
        -0.6033002292021574
      ],
      "bond_midpoint": [
        9.59668725509881,
        -0.5993257009661529
      ],
      "orientation_vector": [
        0.0,
        1.0
      ],
      "half_bracket_size": 2.6161292747134564,
      "bond": [
        1,
        36
      ],
      "fragment": "F1",
      "backbone": true,
      "suspended_anchor_atom": null,
      "suspended_reason": null,
      "source_label": "F1/mergedFragments[0]",
      "marker_id": "40",
      "side": "right",
      "connection_group": ">1",
      "marker_type_index": 4
    }
  ]
}
