
     RDKit          2D

  0  0  0  0  0  0  0  0  0  0999 V3000
M  V30 BEGIN CTAB
M  V30 COUNTS 20 20 1 0 0
M  V30 BEGIN ATOM
M  V30 1 H -6.062252 -0.449140 0.000000 0
M  V30 2 H 6.061634 -0.448305 0.000000 0
M  V30 3 N -5.196256 0.050960 0.000000 0
M  V30 4 C -4.330260 -0.449140 0.000000 0
M  V30 5 C -3.464255 0.050960 0.000000 0
M  V30 6 C -2.598259 -0.449140 0.000000 0
M  V30 7 C -1.732255 0.050960 0.000000 0
M  V30 8 C -0.866259 -0.449140 0.000000 0
M  V30 9 C -0.000254 0.050960 0.000000 0
M  V30 10 N 0.865742 -0.449140 0.000000 0
M  V30 11 C 1.731631 0.050960 0.000000 0
M  V30 12 O 1.731412 1.050961 0.000000 0
M  V30 13 C 2.597798 -0.448795 0.000000 0
M  V30 14 C 2.598080 -1.448805 0.000000 0
M  V30 15 C 3.464256 -1.948565 0.000000 0
M  V30 16 C 4.330149 -1.448315 0.000000 0
M  V30 17 C 4.329866 -0.448305 0.000000 0
M  V30 18 C 3.463690 0.051455 0.000000 0
M  V30 19 C 5.195750 0.051940 0.000000 0
M  V30 20 O 5.195457 1.051940 0.000000 0
M  V30 END ATOM
M  V30 BEGIN BOND
M  V30 1 1 3 4
M  V30 2 1 4 5
M  V30 3 1 5 6
M  V30 4 1 6 7
M  V30 5 1 7 8
M  V30 6 1 8 9
M  V30 7 1 9 10
M  V30 8 1 10 11
M  V30 9 2 11 12
M  V30 10 1 11 13
M  V30 11 2 13 14
M  V30 12 1 14 15
M  V30 13 2 15 16
M  V30 14 1 16 17
M  V30 15 2 17 18
M  V30 16 1 17 19
M  V30 17 2 19 20
M  V30 18 1 18 13
M  V30 19 1 1 3
M  V30 20 1 2 19
M  V30 END BOND
M  V30 BEGIN SGROUP
M  V30 1 SRU 0 ATOMS=(4 1 2 3 19) CBONDS=(2 19 20) -
M  V30 BRKXYZ=(9 -5.6293 1.8014 0 -5.6293 -2.1996 0 0 0 0) BRKXYZ=(9 5.6287 1.-
M  V30 8023 0 5.6287 -2.1987 0 0 0 0)
M  V30 END SGROUP
M  V30 END CTAB
M  END
>  <BIGSMILES_BRACKET_RECORDS_JSON>
{
  "records": [
    {
      "id": 0,
      "bracket_kind": "backbone",
      "pairing_id": "F1/mergedFragments[0]",
      "group_id": "<1:3",
      "ru_midpoint": [
        0.5770732927461574,
        -0.4489108374244575
      ],
      "bond_midpoint": [
        -5.6292537814529355,
        -0.19908974358147186
      ],
      "orientation_vector": [
        0.0,
        1.0
      ],
      "half_bracket_size": 2.000504759763885,
      "bond": [
        0,
        2
      ],
      "fragment": "F1",
      "backbone": true,
      "suspended_anchor_atom": null,
      "suspended_reason": null,
      "source_label": "F1/mergedFragments[0]",
      "marker_id": "0",
      "side": "left",
      "connection_group": "<1",
      "marker_type_index": 3
    },
    {
      "id": 1,
      "bracket_kind": "backbone",
      "pairing_id": "F1/mergedFragments[0]",
      "group_id": ">1:4",
      "ru_midpoint": [
        0.5770732927461574,
        -0.4489108374244575
      ],
      "bond_midpoint": [
        5.628691766837262,
        -0.19818260172918528
      ],
      "orientation_vector": [
        0.0,
        1.0
      ],
      "half_bracket_size": 2.000504759763885,
      "bond": [
        1,
        18
      ],
      "fragment": "F1",
      "backbone": true,
      "suspended_anchor_atom": null,
      "suspended_reason": null,
      "source_label": "F1/mergedFragments[0]",
      "marker_id": "19",
      "side": "right",
      "connection_group": ">1",
      "marker_type_index": 4
    }
  ]
}
