
     RDKit          2D

  0  0  0  0  0  0  0  0  0  0999 V3000
M  V30 BEGIN CTAB
M  V30 COUNTS 24 25 1 0 0
M  V30 BEGIN ATOM
M  V30 1 H -5.433297 0.484418 0.000000 0
M  V30 2 H 5.298687 -0.015582 0.000000 0
M  V30 3 O -4.433297 -0.015582 0.000000 0
M  V30 4 C -3.433297 -0.015582 0.000000 0
M  V30 5 C -2.933286 -0.881625 0.000000 0
M  V30 6 Cl -3.433303 -1.747679 0.000000 0
M  V30 7 C -1.933266 -0.881625 0.000000 0
M  V30 8 C -1.433255 -0.015582 0.000000 0
M  V30 9 C -1.933266 0.850462 0.000000 0
M  V30 10 C -2.933286 0.850462 0.000000 0
M  V30 11 C -0.433255 -0.015582 0.000000 0
M  V30 12 C -0.433255 0.984420 0.000000 0
M  V30 13 C -0.433255 -1.015528 0.000000 0
M  V30 14 C 0.432671 -1.515699 0.000000 0
M  V30 15 C 0.566745 -0.015582 0.000000 0
M  V30 16 C 1.066751 -0.881618 0.000000 0
M  V30 17 C 2.066763 -0.881618 0.000000 0
M  V30 18 Cl 2.566798 -1.747704 0.000000 0
M  V30 19 C 2.566769 -0.015582 0.000000 0
M  V30 20 C 2.066763 0.850454 0.000000 0
M  V30 21 C 1.066751 0.850454 0.000000 0
M  V30 22 O 3.566769 -0.015582 0.000000 0
M  V30 23 C 4.432728 0.484425 0.000000 0
M  V30 24 O 4.432712 1.484339 0.000000 0
M  V30 END ATOM
M  V30 BEGIN BOND
M  V30 1 1 3 4
M  V30 2 2 4 5
M  V30 3 1 5 6
M  V30 4 1 5 7
M  V30 5 2 7 8
M  V30 6 1 8 9
M  V30 7 2 9 10
M  V30 8 1 8 11
M  V30 9 1 11 12
M  V30 10 1 11 13
M  V30 11 1 13 14
M  V30 12 1 11 15
M  V30 13 2 15 16
M  V30 14 1 16 17
M  V30 15 1 17 18
M  V30 16 2 17 19
M  V30 17 1 19 20
M  V30 18 2 20 21
M  V30 19 1 19 22
M  V30 20 1 22 23
M  V30 21 2 23 24
M  V30 22 1 10 4
M  V30 23 1 21 15
M  V30 24 1 1 3
M  V30 25 1 2 23
M  V30 END BOND
M  V30 BEGIN SGROUP
M  V30 1 SRU 0 ATOMS=(4 1 2 3 23) CBONDS=(2 24 25) -
M  V30 BRKXYZ=(9 -4.9333 1.9665 0 -4.9333 -1.4977 0 0 0 0) BRKXYZ=(9 4.8657 1.-
M  V30 9665 0 4.8657 -1.4977 0 0 0 0)
M  V30 END SGROUP
M  V30 END CTAB
M  END
>  <BIGSMILES_BRACKET_RECORDS_JSON>
{
  "records": [
    {
      "id": 0,
      "bracket_kind": "backbone",
      "pairing_id": "F1/mergedFragments[0]",
      "group_id": "<1:3",
      "ru_midpoint": [
        -0.18182807981634452,
        0.039968103477407646
      ],
      "bond_midpoint": [
        -4.933296862397221,
        0.23441815575472844
      ],
      "orientation_vector": [
        0.0,
        1.0
      ],
      "half_bracket_size": 1.732086740837381,
      "bond": [
        0,
        2
      ],
      "fragment": "F1",
      "backbone": true,
      "suspended_anchor_atom": null,
      "suspended_reason": null,
      "source_label": "F1/mergedFragments[0]",
      "marker_id": "0",
      "side": "left",
      "connection_group": "<1",
      "marker_type_index": 3
    },
    {
      "id": 1,
      "bracket_kind": "backbone",
      "pairing_id": "F1/mergedFragments[0]",
      "group_id": ">1:4",
      "ru_midpoint": [
        -0.18182807981634452,
        0.039968103477407646
      ],
      "bond_midpoint": [
        4.865707842689281,
        0.23442168520934636
      ],
      "orientation_vector": [
        0.0,
        1.0
      ],
      "half_bracket_size": 1.732086740837381,
      "bond": [
        1,
        22
      ],
      "fragment": "F1",
      "backbone": true,
      "suspended_anchor_atom": null,
      "suspended_reason": null,
      "source_label": "F1/mergedFragments[0]",
      "marker_id": "23",
      "side": "right",
      "connection_group": ">1",
      "marker_type_index": 4
    }
  ]
}
