
     RDKit          2D

  0  0  0  0  0  0  0  0  0  0999 V3000
M  V30 BEGIN CTAB
M  V30 COUNTS 12 12 1 0 0
M  V30 BEGIN ATOM
M  V30 1 H -1.299250 -0.448550 0.000000 0
M  V30 2 H 1.298764 0.051350 0.000000 0
M  V30 3 C -0.433245 0.051350 0.000000 0
M  V30 4 C 0.432759 -0.448550 0.000000 0
M  V30 5 C 0.432759 -1.448302 0.000000 0
M  V30 6 C -0.433430 -1.948419 0.000000 0
M  V30 7 C -1.299273 -1.448584 0.000000 0
M  V30 8 C -0.433230 -2.948517 0.000000 0
M  V30 9 C 0.432712 -3.448524 0.000000 0
M  V30 10 C 1.298901 -2.948407 0.000000 0
M  V30 11 C 2.164844 -3.448415 0.000000 0
M  V30 12 C 1.298801 -1.948482 0.000000 0
M  V30 END ATOM
M  V30 BEGIN BOND
M  V30 1 1 3 4
M  V30 2 1 4 5
M  V30 3 2 5 6
M  V30 4 1 6 7
M  V30 5 1 6 8
M  V30 6 2 8 9
M  V30 7 1 9 10
M  V30 8 1 10 11
M  V30 9 2 10 12
M  V30 10 1 12 5
M  V30 11 1 1 3
M  V30 12 1 2 4
M  V30 END BOND
M  V30 BEGIN SGROUP
M  V30 1 SRU 0 ATOMS=(4 1 2 3 4) CBONDS=(2 11 12) -
M  V30 BRKXYZ=(9 -0.8662 0.3013 0 -0.8662 -0.6985 0 0 0 0) BRKXYZ=(9 0.8658 0.-
M  V30 3013 0 0.8658 -0.6985 0 0 0 0)
M  V30 END SGROUP
M  V30 END CTAB
M  END
>  <BIGSMILES_BRACKET_RECORDS_JSON>
{
  "records": [
    {
      "id": 0,
      "bracket_kind": "backbone",
      "pairing_id": "F1/fragments[0]",
      "group_id": "$a:2",
      "ru_midpoint": [
        -0.0002321316269335849,
        -0.1985811216495139
      ],
      "bond_midpoint": [
        -0.866247394068419,
        -0.19860000000000005
      ],
      "orientation_vector": [
        0.0,
        1.0
      ],
      "half_bracket_size": 0.49990016001536197,
      "bond": [
        0,
        2
      ],
      "fragment": "F1",
      "backbone": true,
      "suspended_anchor_atom": null,
      "suspended_reason": null,
      "source_label": "F1/fragments[0]",
      "marker_id": "0",
      "side": "left",
      "connection_group": "$a",
      "marker_type_index": 2
    },
    {
      "id": 1,
      "bracket_kind": "backbone",
      "pairing_id": "F1/fragments[0]",
      "group_id": "$a:2",
      "ru_midpoint": [
        -0.0002321316269335849,
        -0.1985811216495139
      ],
      "bond_midpoint": [
        0.8657613241736286,
        -0.19860000000000005
      ],
      "orientation_vector": [
        0.0,
        1.0
      ],
      "half_bracket_size": 0.49990016001536197,
      "bond": [
        1,
        3
      ],
      "fragment": "F1",
      "backbone": true,
      "suspended_anchor_atom": null,
      "suspended_reason": null,
      "source_label": "F1/fragments[0]",
      "marker_id": "11",
      "side": "right",
      "connection_group": "$a",
      "marker_type_index": 2
    }
  ]
}
