
     RDKit          2D

  0  0  0  0  0  0  0  0  0  0999 V3000
M  V30 BEGIN CTAB
M  V30 COUNTS 21 22 1 0 0
M  V30 BEGIN ATOM
M  V30 1 H -5.433272 -0.881618 0.000000 0
M  V30 2 H 5.298662 -0.381618 0.000000 0
M  V30 3 O -4.433272 -0.381618 0.000000 0
M  V30 4 C -3.433272 -0.381618 0.000000 0
M  V30 5 C -2.933278 0.484396 0.000000 0
M  V30 6 C -1.933291 0.484396 0.000000 0
M  V30 7 C -1.433297 -0.381618 0.000000 0
M  V30 8 C -1.933291 -1.247633 0.000000 0
M  V30 9 C -2.933278 -1.247633 0.000000 0
M  V30 10 C -0.433297 -0.381618 0.000000 0
M  V30 11 C -0.433297 0.618382 0.000000 0
M  V30 12 C -0.433297 -1.381618 0.000000 0
M  V30 13 C 0.566703 -0.381618 0.000000 0
M  V30 14 C 1.066713 0.484425 0.000000 0
M  V30 15 C 2.066734 0.484425 0.000000 0
M  V30 16 C 2.566744 -0.381618 0.000000 0
M  V30 17 C 2.066734 -1.247661 0.000000 0
M  V30 18 C 1.066713 -1.247661 0.000000 0
M  V30 19 O 3.566744 -0.381618 0.000000 0
M  V30 20 C 4.432703 -0.881625 0.000000 0
M  V30 21 O 4.432687 -1.881539 0.000000 0
M  V30 END ATOM
M  V30 BEGIN BOND
M  V30 1 1 3 4
M  V30 2 2 4 5
M  V30 3 1 5 6
M  V30 4 2 6 7
M  V30 5 1 7 8
M  V30 6 2 8 9
M  V30 7 1 7 10
M  V30 8 1 10 11
M  V30 9 1 10 12
M  V30 10 1 10 13
M  V30 11 2 13 14
M  V30 12 1 14 15
M  V30 13 2 15 16
M  V30 14 1 16 17
M  V30 15 2 17 18
M  V30 16 1 16 19
M  V30 17 1 19 20
M  V30 18 2 20 21
M  V30 19 1 9 4
M  V30 20 1 18 13
M  V30 21 1 1 3
M  V30 22 1 2 20
M  V30 END BOND
M  V30 BEGIN SGROUP
M  V30 1 SRU 0 ATOMS=(4 1 2 3 20) CBONDS=(2 21 22) -
M  V30 BRKXYZ=(9 -4.9333 1.1005 0 -4.9333 -2.3637 0 0 0 0) BRKXYZ=(9 4.8657 1.-
M  V30 1005 0 4.8657 -2.3637 0 0 0 0)
M  V30 END SGROUP
M  V30 END CTAB
M  END
>  <BIGSMILES_BRACKET_RECORDS_JSON>
{
  "records": [
    {
      "id": 0,
      "bracket_kind": "backbone",
      "pairing_id": "F1/mergedFragments[0]",
      "group_id": "<1:3",
      "ru_midpoint": [
        -0.18184568377700439,
        -0.9371680580273335
      ],
      "bond_midpoint": [
        -4.933271896656965,
        -0.6316181103046552
      ],
      "orientation_vector": [
        0.0,
        1.0
      ],
      "half_bracket_size": 1.7320865590370849,
      "bond": [
        0,
        2
      ],
      "fragment": "F1",
      "backbone": true,
      "suspended_anchor_atom": null,
      "suspended_reason": null,
      "source_label": "F1/mergedFragments[0]",
      "marker_id": "0",
      "side": "left",
      "connection_group": "<1",
      "marker_type_index": 3
    },
    {
      "id": 1,
      "bracket_kind": "backbone",
      "pairing_id": "F1/mergedFragments[0]",
      "group_id": ">1:4",
      "ru_midpoint": [
        -0.18184568377700439,
        -0.9371680580273335
      ],
      "bond_midpoint": [
        4.865682876949025,
        -0.6316216397592707
      ],
      "orientation_vector": [
        0.0,
        1.0
      ],
      "half_bracket_size": 1.7320865590370849,
      "bond": [
        1,
        19
      ],
      "fragment": "F1",
      "backbone": true,
      "suspended_anchor_atom": null,
      "suspended_reason": null,
      "source_label": "F1/mergedFragments[0]",
      "marker_id": "20",
      "side": "right",
      "connection_group": ">1",
      "marker_type_index": 4
    }
  ]
}
