
     RDKit          2D

  0  0  0  0  0  0  0  0  0  0999 V3000
M  V30 BEGIN CTAB
M  V30 COUNTS 31 33 1 0 0
M  V30 BEGIN ATOM
M  V30 1 H -7.433292 -0.131613 0.000000 0
M  V30 2 H 7.432768 -0.631640 0.000000 0
M  V30 3 O -6.433292 -0.631613 0.000000 0
M  V30 4 C -5.433292 -0.631613 0.000000 0
M  V30 5 C -4.933282 0.234430 0.000000 0
M  V30 6 C -5.433223 1.100355 0.000000 0
M  V30 7 C -3.933261 0.234430 0.000000 0
M  V30 8 C -3.433251 -0.631613 0.000000 0
M  V30 9 C -3.933261 -1.497656 0.000000 0
M  V30 10 C -4.933282 -1.497656 0.000000 0
M  V30 11 C -2.433251 -0.631613 0.000000 0
M  V30 12 C -2.433251 -1.631615 0.000000 0
M  V30 13 C -2.433251 0.368333 0.000000 0
M  V30 14 C -1.433251 -0.631613 0.000000 0
M  V30 15 C -0.933257 0.234401 0.000000 0
M  V30 16 C 0.066730 0.234401 0.000000 0
M  V30 17 C 0.566741 1.100445 0.000000 0
M  V30 18 C 0.566724 -0.631613 0.000000 0
M  V30 19 C 0.066730 -1.497627 0.000000 0
M  V30 20 C -0.933257 -1.497627 0.000000 0
M  V30 21 O 1.566724 -0.631613 0.000000 0
M  V30 22 C 2.432703 -0.131640 0.000000 0
M  V30 23 O 2.173880 0.834300 0.000000 0
M  V30 24 C 3.432703 -0.131640 0.000000 0
M  V30 25 C 3.932719 0.734414 0.000000 0
M  V30 26 C 4.932752 0.734414 0.000000 0
M  V30 27 C 5.432768 -0.131640 0.000000 0
M  V30 28 C 4.932752 -0.997694 0.000000 0
M  V30 29 C 3.932719 -0.997694 0.000000 0
M  V30 30 C 6.432768 -0.131640 0.000000 0
M  V30 31 O 6.691507 -1.097602 0.000000 0
M  V30 END ATOM
M  V30 BEGIN BOND
M  V30 1 1 3 4
M  V30 2 2 4 5
M  V30 3 1 5 6
M  V30 4 1 5 7
M  V30 5 2 7 8
M  V30 6 1 8 9
M  V30 7 2 9 10
M  V30 8 1 8 11
M  V30 9 1 11 12
M  V30 10 1 11 13
M  V30 11 1 11 14
M  V30 12 2 14 15
M  V30 13 1 15 16
M  V30 14 1 16 17
M  V30 15 2 16 18
M  V30 16 1 18 19
M  V30 17 2 19 20
M  V30 18 1 18 21
M  V30 19 1 21 22
M  V30 20 2 22 23
M  V30 21 1 22 24
M  V30 22 2 24 25
M  V30 23 1 25 26
M  V30 24 2 26 27
M  V30 25 1 27 28
M  V30 26 2 28 29
M  V30 27 1 27 30
M  V30 28 2 30 31
M  V30 29 1 10 4
M  V30 30 1 20 14
M  V30 31 1 29 24
M  V30 32 1 1 3
M  V30 33 1 2 30
M  V30 END BOND
M  V30 BEGIN SGROUP
M  V30 1 SRU 0 ATOMS=(4 1 2 3 30) CBONDS=(2 32 33) -
M  V30 BRKXYZ=(9 -6.9333 1.8505 0 -6.9333 -2.6137 0 0 0 0) BRKXYZ=(9 6.9328 1.-
M  V30 8504 0 6.9328 -2.6137 0 0 0 0)
M  V30 END SGROUP
M  V30 END CTAB
M  END
>  <BIGSMILES_BRACKET_RECORDS_JSON>
{
  "records": [
    {
      "id": 0,
      "bracket_kind": "backbone",
      "pairing_id": "F1/mergedFragments[0]",
      "group_id": "<1:3",
      "ru_midpoint": [
        -0.04150162121861101,
        -0.451627792849985
      ],
      "bond_midpoint": [
        -6.933291961552142,
        -0.38161296239121434
      ],
      "orientation_vector": [
        0.0,
        1.0
      ],
      "half_bracket_size": 2.2320701972248553,
      "bond": [
        0,
        2
      ],
      "fragment": "F1",
      "backbone": true,
      "suspended_anchor_atom": null,
      "suspended_reason": null,
      "source_label": "F1/mergedFragments[0]",
      "marker_id": "0",
      "side": "left",
      "connection_group": "<1",
      "marker_type_index": 3
    },
    {
      "id": 1,
      "bracket_kind": "backbone",
      "pairing_id": "F1/mergedFragments[0]",
      "group_id": ">1:4",
      "ru_midpoint": [
        -0.04150162121861101,
        -0.451627792849985
      ],
      "bond_midpoint": [
        6.932768487853909,
        -0.3816399031170148
      ],
      "orientation_vector": [
        0.0,
        1.0
      ],
      "half_bracket_size": 2.2320701972248553,
      "bond": [
        1,
        29
      ],
      "fragment": "F1",
      "backbone": true,
      "suspended_anchor_atom": null,
      "suspended_reason": null,
      "source_label": "F1/mergedFragments[0]",
      "marker_id": "30",
      "side": "right",
      "connection_group": ">1",
      "marker_type_index": 4
    }
  ]
}
