
     RDKit          2D

  0  0  0  0  0  0  0  0  0  0999 V3000
M  V30 BEGIN CTAB
M  V30 COUNTS 11 11 1 0 0
M  V30 BEGIN ATOM
M  V30 1 H -2.433188 -0.631613 0.000000 0
M  V30 2 H 2.566811 -1.131613 0.000000 0
M  V30 3 C -1.433188 -0.631613 0.000000 0
M  V30 4 C -0.933189 0.234413 0.000000 0
M  V30 5 C 0.066811 0.234413 0.000000 0
M  V30 6 C 0.566755 1.100340 0.000000 0
M  V30 7 C 0.566811 -0.631613 0.000000 0
M  V30 8 C 0.066811 -1.497638 0.000000 0
M  V30 9 C 0.566795 -2.363634 0.000000 0
M  V30 10 C -0.933189 -1.497638 0.000000 0
M  V30 11 O 1.566811 -0.631613 0.000000 0
M  V30 END ATOM
M  V30 BEGIN BOND
M  V30 1 2 3 4
M  V30 2 1 4 5
M  V30 3 1 5 6
M  V30 4 2 5 7
M  V30 5 1 7 8
M  V30 6 1 8 9
M  V30 7 2 8 10
M  V30 8 1 7 11
M  V30 9 1 10 3
M  V30 10 1 1 3
M  V30 11 1 2 11
M  V30 END BOND
M  V30 BEGIN SGROUP
M  V30 1 SRU 0 ATOMS=(4 1 2 3 11) CBONDS=(2 10 11) -
M  V30 BRKXYZ=(9 -1.9332 1.1004 0 -1.9332 -2.3637 0 0 0 0) BRKXYZ=(9 2.0668 0.-
M  V30 8504 0 2.0668 -2.6137 0 0 0 0)
M  V30 END SGROUP
M  V30 END CTAB
M  END
>  <BIGSMILES_BRACKET_RECORDS_JSON>
{
  "records": [
    {
      "id": 0,
      "bracket_kind": "backbone",
      "pairing_id": "F1/fragments[0]",
      "group_id": "<1:3",
      "ru_midpoint": [
        -0.04775946182359436,
        -0.5760599933986915
      ],
      "bond_midpoint": [
        -1.9331884667341566,
        -0.631612555540269
      ],
      "orientation_vector": [
        0.0,
        1.0
      ],
      "half_bracket_size": 1.7320502221610758,
      "bond": [
        0,
        2
      ],
      "fragment": "F1",
      "backbone": true,
      "suspended_anchor_atom": null,
      "suspended_reason": null,
      "source_label": "F1/fragments[0]",
      "marker_id": "0",
      "side": "left",
      "connection_group": "<1",
      "marker_type_index": 3
    },
    {
      "id": 1,
      "bracket_kind": "backbone",
      "pairing_id": "F1/fragments[0]",
      "group_id": ">1:4",
      "ru_midpoint": [
        -0.04775946182359436,
        -0.5760599933986915
      ],
      "bond_midpoint": [
        2.066810857295139,
        -0.881612555540269
      ],
      "orientation_vector": [
        0.0,
        1.0
      ],
      "half_bracket_size": 1.7320502221610758,
      "bond": [
        1,
        10
      ],
      "fragment": "F1",
      "backbone": true,
      "suspended_anchor_atom": null,
      "suspended_reason": null,
      "source_label": "F1/fragments[0]",
      "marker_id": "10",
      "side": "right",
      "connection_group": ">1",
      "marker_type_index": 4
    }
  ]
}
