
     RDKit          2D

  0  0  0  0  0  0  0  0  0  0999 V3000
M  V30 BEGIN CTAB
M  V30 COUNTS 53 60 1 0 0
M  V30 BEGIN ATOM
M  V30 1 H -12.523834 -0.531305 0.000000 0
M  V30 2 H 12.523436 -1.031264 0.000000 0
M  V30 3 N -11.532939 -0.665939 0.000000 0
M  V30 4 C -11.059551 -1.546621 0.000000 0
M  V30 5 O -11.493835 -2.447327 0.000000 0
M  V30 6 C -10.075461 -1.368530 0.000000 0
M  V30 7 C -9.284676 -1.980676 0.000000 0
M  V30 8 C -8.359231 -1.601728 0.000000 0
M  V30 9 C -8.224598 -0.610832 0.000000 0
M  V30 10 C -9.015410 0.001116 0.000000 0
M  V30 11 C -9.940828 -0.377634 0.000000 0
M  V30 12 C -10.841610 0.056634 0.000000 0
M  V30 13 O -11.019766 1.040519 0.000000 0
M  V30 14 O -7.299154 -0.231949 0.000000 0
M  V30 15 C -6.299154 -0.231949 0.000000 0
M  V30 16 C -5.799161 0.634064 0.000000 0
M  V30 17 C -4.799175 0.634064 0.000000 0
M  V30 18 C -4.299182 -0.231949 0.000000 0
M  V30 19 C -4.799175 -1.097962 0.000000 0
M  V30 20 C -5.799161 -1.097962 0.000000 0
M  V30 21 S -3.299182 -0.231949 0.000000 0
M  V30 22 C -2.299182 -0.231949 0.000000 0
M  V30 23 C -1.799190 0.634064 0.000000 0
M  V30 24 C -0.799204 0.634064 0.000000 0
M  V30 25 C -0.299211 -0.231949 0.000000 0
M  V30 26 C -0.799204 -1.097962 0.000000 0
M  V30 27 C -1.799190 -1.097962 0.000000 0
M  V30 28 O 0.700789 -0.231949 0.000000 0
M  V30 29 C 1.626226 -0.610849 0.000000 0
M  V30 30 C 1.760812 -1.601682 0.000000 0
M  V30 31 C 2.686204 -1.980693 0.000000 0
M  V30 32 C 3.477087 -1.368685 0.000000 0
M  V30 33 C 4.460967 -1.546650 0.000000 0
M  V30 34 O 4.895330 -2.447535 0.000000 0
M  V30 35 N 4.934515 -0.665881 0.000000 0
M  V30 36 C 4.243203 0.056584 0.000000 0
M  V30 37 O 4.421222 1.040411 0.000000 0
M  V30 38 C 3.342502 -0.377852 0.000000 0
M  V30 39 C 2.417110 0.001159 0.000000 0
M  V30 40 C 5.925413 -0.531264 0.000000 0
M  V30 41 C 6.791426 -1.031257 0.000000 0
M  V30 42 C 7.657439 -0.531264 0.000000 0
M  V30 43 C 7.657439 0.468722 0.000000 0
M  V30 44 C 6.791426 0.968714 0.000000 0
M  V30 45 C 5.925413 0.468722 0.000000 0
M  V30 46 C 8.523464 -1.031264 0.000000 0
M  V30 47 O 8.264645 -1.997190 0.000000 0
M  V30 48 C 9.523464 -1.031264 0.000000 0
M  V30 49 C 10.023457 -0.165251 0.000000 0
M  V30 50 C 11.023443 -0.165251 0.000000 0
M  V30 51 C 11.523436 -1.031264 0.000000 0
M  V30 52 C 11.023443 -1.897277 0.000000 0
M  V30 53 C 10.023457 -1.897277 0.000000 0
M  V30 END ATOM
M  V30 BEGIN BOND
M  V30 1 1 3 4
M  V30 2 2 4 5
M  V30 3 1 4 6
M  V30 4 2 6 7
M  V30 5 1 7 8
M  V30 6 2 8 9
M  V30 7 1 9 10
M  V30 8 2 10 11
M  V30 9 1 11 12
M  V30 10 2 12 13
M  V30 11 1 9 14
M  V30 12 1 14 15
M  V30 13 2 15 16
M  V30 14 1 16 17
M  V30 15 2 17 18
M  V30 16 1 18 19
M  V30 17 2 19 20
M  V30 18 1 18 21
M  V30 19 1 21 22
M  V30 20 2 22 23
M  V30 21 1 23 24
M  V30 22 2 24 25
M  V30 23 1 25 26
M  V30 24 2 26 27
M  V30 25 1 25 28
M  V30 26 1 28 29
M  V30 27 2 29 30
M  V30 28 1 30 31
M  V30 29 2 31 32
M  V30 30 1 32 33
M  V30 31 2 33 34
M  V30 32 1 33 35
M  V30 33 1 35 36
M  V30 34 2 36 37
M  V30 35 1 36 38
M  V30 36 2 38 39
M  V30 37 1 35 40
M  V30 38 2 40 41
M  V30 39 1 41 42
M  V30 40 2 42 43
M  V30 41 1 43 44
M  V30 42 2 44 45
M  V30 43 1 42 46
M  V30 44 2 46 47
M  V30 45 1 46 48
M  V30 46 2 48 49
M  V30 47 1 49 50
M  V30 48 2 50 51
M  V30 49 1 51 52
M  V30 50 2 52 53
M  V30 51 1 12 3
M  V30 52 1 45 40
M  V30 53 1 11 6
M  V30 54 1 53 48
M  V30 55 1 20 15
M  V30 56 1 27 22
M  V30 57 1 39 29
M  V30 58 1 38 32
M  V30 59 1 1 3
M  V30 60 1 2 51
M  V30 END BOND
M  V30 BEGIN SGROUP
M  V30 1 SRU 0 ATOMS=(4 1 2 3 51) CBONDS=(2 59 60) -
M  V30 BRKXYZ=(9 -12.0284 2.3508 0 -12.0284 -3.5480 0 0 0 0) BRKXYZ=(9 12.0234-
M  V30  1.9181 0 12.0234 -3.9807 0 0 0 0)
M  V30 END SGROUP
M  V30 END CTAB
M  END
>  <BIGSMILES_BRACKET_RECORDS_JSON>
{
  "records": [
    {
      "id": 0,
      "bracket_kind": "backbone",
      "pairing_id": "F1/mergedFragments[0]",
      "group_id": "<1:3",
      "ru_midpoint": [
        0.07372720278207634,
        -0.5966050037326065
      ],
      "bond_midpoint": [
        -12.028386698220173,
        -0.5986222068291731
      ],
      "orientation_vector": [
        0.0,
        1.0
      ],
      "half_bracket_size": 2.9494072638790936,
      "bond": [
        0,
        2
      ],
      "fragment": "F1",
      "backbone": true,
      "suspended_anchor_atom": null,
      "suspended_reason": null,
      "source_label": "F1/mergedFragments[0]",
      "marker_id": "0",
      "side": "left",
      "connection_group": "<1",
      "marker_type_index": 3
    },
    {
      "id": 1,
      "bracket_kind": "backbone",
      "pairing_id": "F1/mergedFragments[0]",
      "group_id": ">1:4",
      "ru_midpoint": [
        0.07372720278207634,
        -0.5966050037326065
      ],
      "bond_midpoint": [
        12.023435502207382,
        -1.031264095072272
      ],
      "orientation_vector": [
        0.0,
        1.0
      ],
      "half_bracket_size": 2.9494072638790936,
      "bond": [
        1,
        50
      ],
      "fragment": "F1",
      "backbone": true,
      "suspended_anchor_atom": null,
      "suspended_reason": null,
      "source_label": "F1/mergedFragments[0]",
      "marker_id": "52",
      "side": "right",
      "connection_group": ">1",
      "marker_type_index": 4
    }
  ]
}
