
     RDKit          2D

  0  0  0  0  0  0  0  0  0  0999 V3000
M  V30 BEGIN CTAB
M  V30 COUNTS 46 52 1 0 0
M  V30 BEGIN ATOM
M  V30 1 H -10.523862 -0.531048 0.000000 0
M  V30 2 H 10.523463 -1.031289 0.000000 0
M  V30 3 N -9.532976 -0.665755 0.000000 0
M  V30 4 C -9.059449 -1.546680 0.000000 0
M  V30 5 O -9.493578 -2.447318 0.000000 0
M  V30 6 C -8.075524 -1.368400 0.000000 0
M  V30 7 C -7.284762 -1.980576 0.000000 0
M  V30 8 C -6.359303 -1.601663 0.000000 0
M  V30 9 C -6.224633 -0.610772 0.000000 0
M  V30 10 C -7.015422 0.001205 0.000000 0
M  V30 11 C -7.940854 -0.377510 0.000000 0
M  V30 12 C -8.841647 0.056594 0.000000 0
M  V30 13 O -9.019835 1.040666 0.000000 0
M  V30 14 O -5.299175 -0.231924 0.000000 0
M  V30 15 C -4.299175 -0.231924 0.000000 0
M  V30 16 C -3.799182 0.634089 0.000000 0
M  V30 17 C -2.799196 0.634089 0.000000 0
M  V30 18 C -2.299203 -0.231924 0.000000 0
M  V30 19 C -2.799196 -1.097936 0.000000 0
M  V30 20 C -3.799182 -1.097936 0.000000 0
M  V30 21 C -1.299203 -0.231924 0.000000 0
M  V30 22 O -1.299203 -1.231924 0.000000 0
M  V30 23 C -0.299203 -0.231924 0.000000 0
M  V30 24 C 0.200789 0.634089 0.000000 0
M  V30 25 C 1.200775 0.634089 0.000000 0
M  V30 26 C 1.700768 -0.231924 0.000000 0
M  V30 27 C 1.200775 -1.097936 0.000000 0
M  V30 28 C 0.200789 -1.097936 0.000000 0
M  V30 29 O 2.700768 -0.231924 0.000000 0
M  V30 30 C 3.626227 -0.610772 0.000000 0
M  V30 31 C 3.760781 -1.601609 0.000000 0
M  V30 32 C 4.686238 -1.980463 0.000000 0
M  V30 33 C 5.477140 -1.368480 0.000000 0
M  V30 34 C 6.461014 -1.546476 0.000000 0
M  V30 35 O 6.895399 -2.447498 0.000000 0
M  V30 36 N 6.934514 -0.665905 0.000000 0
M  V30 37 C 6.243039 0.056656 0.000000 0
M  V30 38 O 6.421114 1.040473 0.000000 0
M  V30 39 C 5.342400 -0.377567 0.000000 0
M  V30 40 C 4.416944 0.001287 0.000000 0
M  V30 41 C 7.925411 -0.531289 0.000000 0
M  V30 42 C 8.791424 -1.031282 0.000000 0
M  V30 43 C 9.657437 -0.531289 0.000000 0
M  V30 44 C 9.657437 0.468696 0.000000 0
M  V30 45 C 8.791424 0.968689 0.000000 0
M  V30 46 C 7.925411 0.468696 0.000000 0
M  V30 END ATOM
M  V30 BEGIN BOND
M  V30 1 1 3 4
M  V30 2 2 4 5
M  V30 3 1 4 6
M  V30 4 2 6 7
M  V30 5 1 7 8
M  V30 6 2 8 9
M  V30 7 1 9 10
M  V30 8 2 10 11
M  V30 9 1 11 12
M  V30 10 2 12 13
M  V30 11 1 9 14
M  V30 12 1 14 15
M  V30 13 2 15 16
M  V30 14 1 16 17
M  V30 15 2 17 18
M  V30 16 1 18 19
M  V30 17 2 19 20
M  V30 18 1 18 21
M  V30 19 2 21 22
M  V30 20 1 21 23
M  V30 21 2 23 24
M  V30 22 1 24 25
M  V30 23 2 25 26
M  V30 24 1 26 27
M  V30 25 2 27 28
M  V30 26 1 26 29
M  V30 27 1 29 30
M  V30 28 2 30 31
M  V30 29 1 31 32
M  V30 30 2 32 33
M  V30 31 1 33 34
M  V30 32 2 34 35
M  V30 33 1 34 36
M  V30 34 1 36 37
M  V30 35 2 37 38
M  V30 36 1 37 39
M  V30 37 2 39 40
M  V30 38 1 36 41
M  V30 39 2 41 42
M  V30 40 1 42 43
M  V30 41 2 43 44
M  V30 42 1 44 45
M  V30 43 2 45 46
M  V30 44 1 12 3
M  V30 45 1 46 41
M  V30 46 1 11 6
M  V30 47 1 20 15
M  V30 48 1 28 23
M  V30 49 1 40 30
M  V30 50 1 39 33
M  V30 51 1 1 3
M  V30 52 1 2 43
M  V30 END BOND
M  V30 BEGIN SGROUP
M  V30 1 SRU 0 ATOMS=(4 1 2 3 43) CBONDS=(2 51 52) -
M  V30 BRKXYZ=(9 -10.0284 2.3509 0 -10.0284 -3.5477 0 0 0 0) BRKXYZ=(9 10.0905-
M  V30  2.1680 0 10.0905 -3.7306 0 0 0 0)
M  V30 END SGROUP
M  V30 END CTAB
M  END
>  <BIGSMILES_BRACKET_RECORDS_JSON>
{
  "records": [
    {
      "id": 0,
      "bracket_kind": "backbone",
      "pairing_id": "F1/mergedFragments[0]",
      "group_id": "<1:3",
      "ru_midpoint": [
        0.2408248911446167,
        -0.522337984981033
      ],
      "bond_midpoint": [
        -10.028418933189279,
        -0.5984016156680667
      ],
      "orientation_vector": [
        0.0,
        1.0
      ],
      "half_bracket_size": 2.94926534019485,
      "bond": [
        0,
        2
      ],
      "fragment": "F1",
      "backbone": true,
      "suspended_anchor_atom": null,
      "suspended_reason": null,
      "source_label": "F1/mergedFragments[0]",
      "marker_id": "0",
      "side": "left",
      "connection_group": "<1",
      "marker_type_index": 3
    },
    {
      "id": 1,
      "bracket_kind": "backbone",
      "pairing_id": "F1/mergedFragments[0]",
      "group_id": ">1:4",
      "ru_midpoint": [
        0.2408248911446167,
        -0.522337984981033
      ],
      "bond_midpoint": [
        10.09045004922693,
        -0.7812894787108015
      ],
      "orientation_vector": [
        0.0,
        1.0
      ],
      "half_bracket_size": 2.94926534019485,
      "bond": [
        1,
        42
      ],
      "fragment": "F1",
      "backbone": true,
      "suspended_anchor_atom": null,
      "suspended_reason": null,
      "source_label": "F1/mergedFragments[0]",
      "marker_id": "45",
      "side": "right",
      "connection_group": ">1",
      "marker_type_index": 4
    }
  ]
}
