
     RDKit          2D

  0  0  0  0  0  0  0  0  0  0999 V3000
M  V30 BEGIN CTAB
M  V30 COUNTS 48 55 1 0 0
M  V30 BEGIN ATOM
M  V30 1 H -9.024588 0.564095 0.000000 0
M  V30 2 H 9.024189 0.564034 0.000000 0
M  V30 3 C -8.063826 0.286720 0.000000 0
M  V30 4 C -7.823752 -0.683946 0.000000 0
M  V30 5 C -6.862980 -0.961295 0.000000 0
M  V30 6 C -6.622845 -1.932049 0.000000 0
M  V30 7 C -5.662111 -2.209527 0.000000 0
M  V30 8 C -5.422167 -3.180225 0.000000 0
M  V30 9 C -6.142766 -3.873501 0.000000 0
M  V30 10 C -7.103499 -3.596022 0.000000 0
M  V30 11 C -7.343443 -2.625324 0.000000 0
M  V30 12 C -6.142284 -0.267978 0.000000 0
M  V30 13 C -5.181704 -0.545271 0.000000 0
M  V30 14 C -4.461008 0.148045 0.000000 0
M  V30 15 C -4.701274 1.118767 0.000000 0
M  V30 16 C -5.662046 1.396116 0.000000 0
M  V30 17 C -6.382550 0.702743 0.000000 0
M  V30 18 N -7.343322 0.980092 0.000000 0
M  V30 19 O -3.500246 -0.129330 0.000000 0
M  V30 20 C -2.539508 0.148127 0.000000 0
M  V30 21 C -1.818808 -0.545124 0.000000 0
M  V30 22 C -0.858097 -0.267768 0.000000 0
M  V30 23 C -0.137536 -0.961162 0.000000 0
M  V30 24 C -0.377781 -1.931889 0.000000 0
M  V30 25 C 0.342568 -2.625215 0.000000 0
M  V30 26 C 0.102322 -3.595942 0.000000 0
M  V30 27 C -0.858416 -3.873203 0.000000 0
M  V30 28 C -1.578909 -3.179738 0.000000 0
M  V30 29 C -1.338664 -2.209011 0.000000 0
M  V30 30 C 0.823036 -0.683950 0.000000 0
M  V30 31 C 1.063469 0.286805 0.000000 0
M  V30 32 N 0.342908 0.980199 0.000000 0
M  V30 33 C -0.617803 0.702843 0.000000 0
M  V30 34 C -1.338364 1.396238 0.000000 0
M  V30 35 C -2.299358 1.118877 0.000000 0
M  V30 36 C 2.024273 0.564034 0.000000 0
M  V30 37 C 2.524259 -0.301966 0.000000 0
M  V30 38 C 3.524229 -0.301966 0.000000 0
M  V30 39 C 4.024215 0.564034 0.000000 0
M  V30 40 C 3.524229 1.430034 0.000000 0
M  V30 41 C 2.524259 1.430034 0.000000 0
M  V30 42 O 5.024215 0.564034 0.000000 0
M  V30 43 C 6.024215 0.564034 0.000000 0
M  V30 44 C 6.524208 -0.301980 0.000000 0
M  V30 45 C 7.524196 -0.301980 0.000000 0
M  V30 46 C 8.024189 0.564034 0.000000 0
M  V30 47 C 7.524196 1.430049 0.000000 0
M  V30 48 C 6.524208 1.430049 0.000000 0
M  V30 END ATOM
M  V30 BEGIN BOND
M  V30 1 2 3 4
M  V30 2 1 4 5
M  V30 3 1 5 6
M  V30 4 2 6 7
M  V30 5 1 7 8
M  V30 6 2 8 9
M  V30 7 1 9 10
M  V30 8 2 10 11
M  V30 9 2 5 12
M  V30 10 1 12 13
M  V30 11 2 13 14
M  V30 12 1 14 15
M  V30 13 2 15 16
M  V30 14 1 16 17
M  V30 15 2 17 18
M  V30 16 1 14 19
M  V30 17 1 19 20
M  V30 18 2 20 21
M  V30 19 1 21 22
M  V30 20 2 22 23
M  V30 21 1 23 24
M  V30 22 2 24 25
M  V30 23 1 25 26
M  V30 24 2 26 27
M  V30 25 1 27 28
M  V30 26 2 28 29
M  V30 27 1 23 30
M  V30 28 2 30 31
M  V30 29 1 31 32
M  V30 30 2 32 33
M  V30 31 1 33 34
M  V30 32 2 34 35
M  V30 33 1 31 36
M  V30 34 2 36 37
M  V30 35 1 37 38
M  V30 36 2 38 39
M  V30 37 1 39 40
M  V30 38 2 40 41
M  V30 39 1 39 42
M  V30 40 1 42 43
M  V30 41 2 43 44
M  V30 42 1 44 45
M  V30 43 2 45 46
M  V30 44 1 46 47
M  V30 45 2 47 48
M  V30 46 1 18 3
M  V30 47 1 41 36
M  V30 48 1 11 6
M  V30 49 1 48 43
M  V30 50 1 17 12
M  V30 51 1 35 20
M  V30 52 1 33 22
M  V30 53 1 29 24
M  V30 54 1 1 3
M  V30 55 1 2 46
M  V30 END BOND
M  V30 BEGIN SGROUP
M  V30 1 SRU 0 ATOMS=(4 1 2 3 46) CBONDS=(2 54 55) -
M  V30 BRKXYZ=(9 -8.5442 2.8168 0 -8.5442 -1.9659 0 0 0 0) BRKXYZ=(9 8.5242 2.-
M  V30 9554 0 8.5242 -1.8273 0 0 0 0)
M  V30 END SGROUP
M  V30 END CTAB
M  END
>  <BIGSMILES_BRACKET_RECORDS_JSON>
{
  "records": [
    {
      "id": 0,
      "bracket_kind": "backbone",
      "pairing_id": "F1/mergedFragments[0]",
      "group_id": "<1:3",
      "ru_midpoint": [
        -0.22751556553989083,
        0.3522311963412408
      ],
      "bond_midpoint": [
        -8.544207163489911,
        0.42540729171863434
      ],
      "orientation_vector": [
        0.0,
        1.0
      ],
      "half_bracket_size": 2.391343417932937,
      "bond": [
        0,
        2
      ],
      "fragment": "F1",
      "backbone": true,
      "suspended_anchor_atom": null,
      "suspended_reason": null,
      "source_label": "F1/mergedFragments[0]",
      "marker_id": "0",
      "side": "left",
      "connection_group": "<1",
      "marker_type_index": 3
    },
    {
      "id": 1,
      "bracket_kind": "backbone",
      "pairing_id": "F1/mergedFragments[0]",
      "group_id": ">1:4",
      "ru_midpoint": [
        -0.22751556553989083,
        0.3522311963412408
      ],
      "bond_midpoint": [
        8.524189167322175,
        0.5640342399806599
      ],
      "orientation_vector": [
        0.0,
        1.0
      ],
      "half_bracket_size": 2.391343417932937,
      "bond": [
        1,
        45
      ],
      "fragment": "F1",
      "backbone": true,
      "suspended_anchor_atom": null,
      "suspended_reason": null,
      "source_label": "F1/mergedFragments[0]",
      "marker_id": "47",
      "side": "right",
      "connection_group": ">1",
      "marker_type_index": 4
    }
  ]
}
