
     RDKit          2D

  0  0  0  0  0  0  0  0  0  0999 V3000
M  V30 BEGIN CTAB
M  V30 COUNTS 41 47 1 0 0
M  V30 BEGIN ATOM
M  V30 1 H -7.830250 -0.265501 0.000000 0
M  V30 2 H 7.829851 0.734424 0.000000 0
M  V30 3 C -6.964255 -0.765554 0.000000 0
M  V30 4 C -6.098222 -0.265567 0.000000 0
M  V30 5 C -5.232297 -0.765604 0.000000 0
M  V30 6 C -5.232231 -1.765529 0.000000 0
M  V30 7 C -4.366306 -2.265566 0.000000 0
M  V30 8 C -4.366241 -3.265491 0.000000 0
M  V30 9 C -5.232274 -3.765478 0.000000 0
M  V30 10 C -6.098372 -3.265541 0.000000 0
M  V30 11 C -6.098264 -2.265516 0.000000 0
M  V30 12 N -6.964363 -1.765579 0.000000 0
M  V30 13 C -4.366267 -0.265611 0.000000 0
M  V30 14 C -3.866274 -1.131624 0.000000 0
M  V30 15 C -2.866289 -1.131624 0.000000 0
M  V30 16 C -2.366296 -0.265611 0.000000 0
M  V30 17 C -2.866289 0.600402 0.000000 0
M  V30 18 C -3.866274 0.600402 0.000000 0
M  V30 19 O -1.366296 -0.265611 0.000000 0
M  V30 20 C -0.366296 -0.265611 0.000000 0
M  V30 21 C 0.133697 -1.131624 0.000000 0
M  V30 22 C 1.133683 -1.131624 0.000000 0
M  V30 23 C 1.633676 -0.265611 0.000000 0
M  V30 24 C 1.133683 0.600402 0.000000 0
M  V30 25 C 0.133697 0.600402 0.000000 0
M  V30 26 C 2.633676 -0.265611 0.000000 0
M  V30 27 C 3.499721 0.234355 0.000000 0
M  V30 28 C 4.365795 -0.265611 0.000000 0
M  V30 29 N 4.365823 -1.265543 0.000000 0
M  V30 30 C 3.499777 -1.765509 0.000000 0
M  V30 31 C 3.499632 -2.765541 0.000000 0
M  V30 32 C 2.633587 -3.265507 0.000000 0
M  V30 33 C 1.767686 -2.765441 0.000000 0
M  V30 34 C 1.767658 -1.765509 0.000000 0
M  V30 35 C 2.633704 -1.265543 0.000000 0
M  V30 36 C 5.231800 0.234424 0.000000 0
M  V30 37 C 6.097812 0.734417 0.000000 0
M  V30 38 C 6.963825 0.234424 0.000000 0
M  V30 39 C 6.963825 -0.765561 0.000000 0
M  V30 40 C 6.097812 -1.265554 0.000000 0
M  V30 41 C 5.231800 -0.765561 0.000000 0
M  V30 END ATOM
M  V30 BEGIN BOND
M  V30 1 2 3 4
M  V30 2 1 4 5
M  V30 3 2 5 6
M  V30 4 1 6 7
M  V30 5 2 7 8
M  V30 6 1 8 9
M  V30 7 2 9 10
M  V30 8 1 10 11
M  V30 9 2 11 12
M  V30 10 1 5 13
M  V30 11 2 13 14
M  V30 12 1 14 15
M  V30 13 2 15 16
M  V30 14 1 16 17
M  V30 15 2 17 18
M  V30 16 1 16 19
M  V30 17 1 19 20
M  V30 18 2 20 21
M  V30 19 1 21 22
M  V30 20 2 22 23
M  V30 21 1 23 24
M  V30 22 2 24 25
M  V30 23 1 23 26
M  V30 24 2 26 27
M  V30 25 1 27 28
M  V30 26 2 28 29
M  V30 27 1 29 30
M  V30 28 2 30 31
M  V30 29 1 31 32
M  V30 30 2 32 33
M  V30 31 1 33 34
M  V30 32 2 34 35
M  V30 33 1 28 36
M  V30 34 2 36 37
M  V30 35 1 37 38
M  V30 36 2 38 39
M  V30 37 1 39 40
M  V30 38 2 40 41
M  V30 39 1 12 3
M  V30 40 1 41 36
M  V30 41 1 11 6
M  V30 42 1 18 13
M  V30 43 1 25 20
M  V30 44 1 35 26
M  V30 45 1 35 30
M  V30 46 1 1 3
M  V30 47 1 2 38
M  V30 END BOND
M  V30 BEGIN SGROUP
M  V30 1 SRU 0 ATOMS=(4 1 2 3 38) CBONDS=(2 46 47) -
M  V30 BRKXYZ=(9 -7.3973 3.9844 0 -7.3973 -5.0154 0 0 0 0) BRKXYZ=(9 7.3968 4.-
M  V30 9843 0 7.3968 -4.0155 0 0 0 0)
M  V30 END SGROUP
M  V30 END CTAB
M  END
>  <BIGSMILES_BRACKET_RECORDS_JSON>
{
  "records": [
    {
      "id": 0,
      "bracket_kind": "backbone",
      "pairing_id": "F1/mergedFragments[0]",
      "group_id": "<1:3",
      "ru_midpoint": [
        -0.17466183791253176,
        -0.972885782502213
      ],
      "bond_midpoint": [
        -7.397252339423,
        -0.5155273448824905
      ],
      "orientation_vector": [
        0.0,
        1.0
      ],
      "half_bracket_size": 4.499902251071761,
      "bond": [
        0,
        2
      ],
      "fragment": "F1",
      "backbone": true,
      "suspended_anchor_atom": null,
      "suspended_reason": null,
      "source_label": "F1/mergedFragments[0]",
      "marker_id": "0",
      "side": "left",
      "connection_group": "<1",
      "marker_type_index": 3
    },
    {
      "id": 1,
      "bracket_kind": "backbone",
      "pairing_id": "F1/mergedFragments[0]",
      "group_id": ">1:4",
      "ru_midpoint": [
        -0.17466183791253176,
        -0.972885782502213
      ],
      "bond_midpoint": [
        7.396838137884918,
        0.48442417686228195
      ],
      "orientation_vector": [
        0.0,
        1.0
      ],
      "half_bracket_size": 4.499902251071761,
      "bond": [
        1,
        37
      ],
      "fragment": "F1",
      "backbone": true,
      "suspended_anchor_atom": null,
      "suspended_reason": null,
      "source_label": "F1/mergedFragments[0]",
      "marker_id": "40",
      "side": "right",
      "connection_group": ">1",
      "marker_type_index": 4
    }
  ]
}
