
     RDKit          2D

  0  0  0  0  0  0  0  0  0  0999 V3000
M  V30 BEGIN CTAB
M  V30 COUNTS 53 61 1 0 0
M  V30 BEGIN ATOM
M  V30 1 H -7.830372 -0.265676 0.000000 0
M  V30 2 H 7.829974 0.734424 0.000000 0
M  V30 3 C -6.964334 -0.765654 0.000000 0
M  V30 4 C -6.098301 -0.265666 0.000000 0
M  V30 5 C -6.098339 0.734358 0.000000 0
M  V30 6 C -6.964337 1.234406 0.000000 0
M  V30 7 C -6.964375 2.234431 0.000000 0
M  V30 8 C -6.098242 2.734308 0.000000 0
M  V30 9 C -5.232244 2.234260 0.000000 0
M  V30 10 C -5.232379 1.234335 0.000000 0
M  V30 11 C -5.232203 -0.765604 0.000000 0
M  V30 12 C -5.232311 -1.765628 0.000000 0
M  V30 13 C -4.366212 -2.265566 0.000000 0
M  V30 14 C -4.366320 -3.265591 0.000000 0
M  V30 15 C -5.232353 -3.765578 0.000000 0
M  V30 16 C -6.098278 -3.265541 0.000000 0
M  V30 17 C -6.098344 -2.265616 0.000000 0
M  V30 18 N -6.964269 -1.765579 0.000000 0
M  V30 19 C -4.366173 -0.265611 0.000000 0
M  V30 20 C -3.866180 -1.131624 0.000000 0
M  V30 21 C -2.866195 -1.131624 0.000000 0
M  V30 22 C -2.366202 -0.265611 0.000000 0
M  V30 23 C -2.866195 0.600402 0.000000 0
M  V30 24 C -3.866180 0.600402 0.000000 0
M  V30 25 O -1.366202 -0.265611 0.000000 0
M  V30 26 C -0.366202 -0.265611 0.000000 0
M  V30 27 C 0.133791 -1.131624 0.000000 0
M  V30 28 C 1.133777 -1.131624 0.000000 0
M  V30 29 C 1.633769 -0.265611 0.000000 0
M  V30 30 C 1.133777 0.600402 0.000000 0
M  V30 31 C 0.133791 0.600402 0.000000 0
M  V30 32 C 2.633769 -0.265611 0.000000 0
M  V30 33 C 3.499800 0.234380 0.000000 0
M  V30 34 C 3.499764 1.234412 0.000000 0
M  V30 35 C 2.633600 1.734221 0.000000 0
M  V30 36 C 2.633391 2.734153 0.000000 0
M  V30 37 C 3.499346 3.234275 0.000000 0
M  V30 38 C 4.365510 2.734466 0.000000 0
M  V30 39 C 4.365719 1.734534 0.000000 0
M  V30 40 C 4.365888 -0.265561 0.000000 0
M  V30 41 N 4.365772 -1.265593 0.000000 0
M  V30 42 C 3.499741 -1.765584 0.000000 0
M  V30 43 C 3.499798 -2.765516 0.000000 0
M  V30 44 C 2.633767 -3.265507 0.000000 0
M  V30 45 C 1.767679 -2.765566 0.000000 0
M  V30 46 C 1.767795 -1.765534 0.000000 0
M  V30 47 C 2.633826 -1.265543 0.000000 0
M  V30 48 C 5.231922 0.234424 0.000000 0
M  V30 49 C 6.097935 0.734417 0.000000 0
M  V30 50 C 6.963948 0.234424 0.000000 0
M  V30 51 C 6.963948 -0.765561 0.000000 0
M  V30 52 C 6.097935 -1.265554 0.000000 0
M  V30 53 C 5.231922 -0.765561 0.000000 0
M  V30 END ATOM
M  V30 BEGIN BOND
M  V30 1 2 3 4
M  V30 2 1 4 5
M  V30 3 2 5 6
M  V30 4 1 6 7
M  V30 5 2 7 8
M  V30 6 1 8 9
M  V30 7 2 9 10
M  V30 8 1 4 11
M  V30 9 2 11 12
M  V30 10 1 12 13
M  V30 11 2 13 14
M  V30 12 1 14 15
M  V30 13 2 15 16
M  V30 14 1 16 17
M  V30 15 2 17 18
M  V30 16 1 11 19
M  V30 17 2 19 20
M  V30 18 1 20 21
M  V30 19 2 21 22
M  V30 20 1 22 23
M  V30 21 2 23 24
M  V30 22 1 22 25
M  V30 23 1 25 26
M  V30 24 2 26 27
M  V30 25 1 27 28
M  V30 26 2 28 29
M  V30 27 1 29 30
M  V30 28 2 30 31
M  V30 29 1 29 32
M  V30 30 2 32 33
M  V30 31 1 33 34
M  V30 32 2 34 35
M  V30 33 1 35 36
M  V30 34 2 36 37
M  V30 35 1 37 38
M  V30 36 2 38 39
M  V30 37 1 33 40
M  V30 38 2 40 41
M  V30 39 1 41 42
M  V30 40 2 42 43
M  V30 41 1 43 44
M  V30 42 2 44 45
M  V30 43 1 45 46
M  V30 44 2 46 47
M  V30 45 1 40 48
M  V30 46 2 48 49
M  V30 47 1 49 50
M  V30 48 2 50 51
M  V30 49 1 51 52
M  V30 50 2 52 53
M  V30 51 1 18 3
M  V30 52 1 53 48
M  V30 53 1 10 5
M  V30 54 1 17 12
M  V30 55 1 24 19
M  V30 56 1 31 26
M  V30 57 1 47 32
M  V30 58 1 39 34
M  V30 59 1 47 42
M  V30 60 1 1 3
M  V30 61 1 2 50
M  V30 END BOND
M  V30 BEGIN SGROUP
M  V30 1 SRU 0 ATOMS=(4 1 2 3 50) CBONDS=(2 60 61) -
M  V30 BRKXYZ=(9 -7.3974 3.9843 0 -7.3974 -5.0157 0 0 0 0) BRKXYZ=(9 7.3970 4.-
M  V30 9844 0 7.3970 -4.0156 0 0 0 0)
M  V30 END SGROUP
M  V30 END CTAB
M  END
>  <BIGSMILES_BRACKET_RECORDS_JSON>
{
  "records": [
    {
      "id": 0,
      "bracket_kind": "backbone",
      "pairing_id": "F1/mergedFragments[0]",
      "group_id": "<1:3",
      "ru_midpoint": [
        -0.17459754424632745,
        -0.9729089650140654
      ],
      "bond_midpoint": [
        -7.397353388689712,
        -0.5156647190931963
      ],
      "orientation_vector": [
        0.0,
        1.0
      ],
      "half_bracket_size": 4.500002175561459,
      "bond": [
        0,
        2
      ],
      "fragment": "F1",
      "backbone": true,
      "suspended_anchor_atom": null,
      "suspended_reason": null,
      "source_label": "F1/mergedFragments[0]",
      "marker_id": "0",
      "side": "left",
      "connection_group": "<1",
      "marker_type_index": 3
    },
    {
      "id": 1,
      "bracket_kind": "backbone",
      "pairing_id": "F1/mergedFragments[0]",
      "group_id": ">1:4",
      "ru_midpoint": [
        -0.17459754424632745,
        -0.9729089650140654
      ],
      "bond_midpoint": [
        7.396960848922186,
        0.4844242448682303
      ],
      "orientation_vector": [
        0.0,
        1.0
      ],
      "half_bracket_size": 4.500002175561459,
      "bond": [
        1,
        49
      ],
      "fragment": "F1",
      "backbone": true,
      "suspended_anchor_atom": null,
      "suspended_reason": null,
      "source_label": "F1/mergedFragments[0]",
      "marker_id": "52",
      "side": "right",
      "connection_group": ">1",
      "marker_type_index": 4
    }
  ]
}
