
     RDKit          2D

  0  0  0  0  0  0  0  0  0  0999 V3000
M  V30 BEGIN CTAB
M  V30 COUNTS 40 46 1 0 0
M  V30 BEGIN ATOM
M  V30 1 H -8.513198 -0.631567 0.000000 0
M  V30 2 H 8.512799 0.734470 0.000000 0
M  V30 3 C -7.647174 -1.131570 0.000000 0
M  V30 4 N -6.781149 -0.631520 0.000000 0
M  V30 5 C -5.915173 -1.131670 0.000000 0
M  V30 6 C -5.049149 -0.631620 0.000000 0
M  V30 7 C -4.183173 -1.131570 0.000000 0
M  V30 8 C -4.183222 -2.131570 0.000000 0
M  V30 9 C -5.049247 -2.631620 0.000000 0
M  V30 10 C -5.915223 -2.131670 0.000000 0
M  V30 11 N -6.781248 -2.631520 0.000000 0
M  V30 12 C -7.647223 -2.131570 0.000000 0
M  V30 13 C -3.317140 -0.631583 0.000000 0
M  V30 14 C -2.451135 -0.131683 0.000000 0
M  V30 15 C -1.585139 -0.631583 0.000000 0
M  V30 16 N -0.719135 -0.131683 0.000000 0
M  V30 17 C 0.146861 -0.631583 0.000000 0
M  V30 18 C 0.146853 -1.631584 0.000000 0
M  V30 19 N -0.719152 -2.131684 0.000000 0
M  V30 20 C -1.585148 -1.631584 0.000000 0
M  V30 21 C -2.451152 -2.131684 0.000000 0
M  V30 22 C -3.317148 -1.631584 0.000000 0
M  V30 23 C 1.012871 -0.131556 0.000000 0
M  V30 24 C 1.512864 -0.997569 0.000000 0
M  V30 25 C 2.512849 -0.997569 0.000000 0
M  V30 26 C 3.012842 -0.131556 0.000000 0
M  V30 27 C 2.512849 0.734457 0.000000 0
M  V30 28 C 1.512864 0.734457 0.000000 0
M  V30 29 C 4.012842 -0.131556 0.000000 0
M  V30 30 C 4.512835 -0.997569 0.000000 0
M  V30 31 C 5.512821 -0.997569 0.000000 0
M  V30 32 C 6.012813 -0.131556 0.000000 0
M  V30 33 C 5.512821 0.734457 0.000000 0
M  V30 34 C 4.512835 0.734457 0.000000 0
M  V30 35 C 7.012813 -0.131556 0.000000 0
M  V30 36 C 8.012799 -0.131556 0.000000 0
M  V30 37 C 8.512792 -0.997569 0.000000 0
M  V30 38 C 8.012799 -1.863582 0.000000 0
M  V30 39 C 7.012813 -1.863582 0.000000 0
M  V30 40 C 6.512821 -0.997569 0.000000 0
M  V30 END ATOM
M  V30 BEGIN BOND
M  V30 1 2 3 4
M  V30 2 1 4 5
M  V30 3 2 5 6
M  V30 4 1 6 7
M  V30 5 2 7 8
M  V30 6 1 8 9
M  V30 7 2 9 10
M  V30 8 1 10 11
M  V30 9 2 11 12
M  V30 10 1 7 13
M  V30 11 2 13 14
M  V30 12 1 14 15
M  V30 13 2 15 16
M  V30 14 1 16 17
M  V30 15 2 17 18
M  V30 16 1 18 19
M  V30 17 2 19 20
M  V30 18 1 20 21
M  V30 19 2 21 22
M  V30 20 1 17 23
M  V30 21 2 23 24
M  V30 22 1 24 25
M  V30 23 2 25 26
M  V30 24 1 26 27
M  V30 25 2 27 28
M  V30 26 1 26 29
M  V30 27 2 29 30
M  V30 28 1 30 31
M  V30 29 2 31 32
M  V30 30 1 32 33
M  V30 31 2 33 34
M  V30 32 1 32 35
M  V30 33 2 35 36
M  V30 34 1 36 37
M  V30 35 2 37 38
M  V30 36 1 38 39
M  V30 37 2 39 40
M  V30 38 1 12 3
M  V30 39 1 28 23
M  V30 40 1 10 5
M  V30 41 1 34 29
M  V30 42 1 22 13
M  V30 43 1 40 35
M  V30 44 1 20 15
M  V30 45 1 1 3
M  V30 46 1 2 36
M  V30 END BOND
M  V30 BEGIN SGROUP
M  V30 1 SRU 0 ATOMS=(4 1 2 3 36) CBONDS=(2 45 46) -
M  V30 BRKXYZ=(9 -8.0802 2.4845 0 -8.0802 -4.2477 0 0 0 0) BRKXYZ=(9 8.2628 3.-
M  V30 6675 0 8.2628 -3.0646 0 0 0 0)
M  V30 END SGROUP
M  V30 END CTAB
M  END
>  <BIGSMILES_BRACKET_RECORDS_JSON>
{
  "records": [
    {
      "id": 0,
      "bracket_kind": "backbone",
      "pairing_id": "F1/mergedFragments[0]",
      "group_id": "<1:3",
      "ru_midpoint": [
        0.30567819285779907,
        -0.877332761110527
      ],
      "bond_midpoint": [
        -8.080185995870043,
        -0.8815684614489412
      ],
      "orientation_vector": [
        0.0,
        1.0
      ],
      "half_bracket_size": 3.3660898871007148,
      "bond": [
        0,
        2
      ],
      "fragment": "F1",
      "backbone": true,
      "suspended_anchor_atom": null,
      "suspended_reason": null,
      "source_label": "F1/mergedFragments[0]",
      "marker_id": "0",
      "side": "left",
      "connection_group": "<1",
      "marker_type_index": 3
    },
    {
      "id": 1,
      "bracket_kind": "backbone",
      "pairing_id": "F1/mergedFragments[0]",
      "group_id": ">1:4",
      "ru_midpoint": [
        0.30567819285779907,
        -0.877332761110527
      ],
      "bond_midpoint": [
        8.262799111730775,
        0.3014570025671076
      ],
      "orientation_vector": [
        0.0,
        1.0
      ],
      "half_bracket_size": 3.3660898871007148,
      "bond": [
        1,
        35
      ],
      "fragment": "F1",
      "backbone": true,
      "suspended_anchor_atom": null,
      "suspended_reason": null,
      "source_label": "F1/mergedFragments[0]",
      "marker_id": "39",
      "side": "right",
      "connection_group": ">1",
      "marker_type_index": 4
    }
  ]
}
