
     RDKit          2D

  0  0  0  0  0  0  0  0  0  0999 V3000
M  V30 BEGIN CTAB
M  V30 COUNTS 30 34 1 0 0
M  V30 BEGIN ATOM
M  V30 1 H -6.696265 -0.381643 0.000000 0
M  V30 2 H 6.695866 -0.381618 0.000000 0
M  V30 3 C -5.830212 -0.881595 0.000000 0
M  V30 4 N -4.964216 -0.381495 0.000000 0
M  V30 5 C -4.098212 -0.881595 0.000000 0
M  V30 6 C -3.232216 -0.381495 0.000000 0
M  V30 7 C -2.366211 -0.881595 0.000000 0
M  V30 8 C -2.366203 -1.881596 0.000000 0
M  V30 9 C -3.232199 -2.381496 0.000000 0
M  V30 10 C -4.098203 -1.881596 0.000000 0
M  V30 11 N -4.964199 -2.381496 0.000000 0
M  V30 12 C -5.830204 -1.881596 0.000000 0
M  V30 13 C -1.500163 -0.381634 0.000000 0
M  V30 14 O -1.500163 -1.381634 0.000000 0
M  V30 15 C -0.634139 0.118369 0.000000 0
M  V30 16 C 0.231886 -0.381681 0.000000 0
M  V30 17 C 1.097861 0.118469 0.000000 0
M  V30 18 N 1.963886 -0.381581 0.000000 0
M  V30 19 C 2.829862 0.118369 0.000000 0
M  V30 20 C 2.829812 1.118369 0.000000 0
M  V30 21 N 1.963787 1.618419 0.000000 0
M  V30 22 C 1.097812 1.118469 0.000000 0
M  V30 23 C 0.231787 1.618319 0.000000 0
M  V30 24 C -0.634189 1.118369 0.000000 0
M  V30 25 C 3.695895 -0.381618 0.000000 0
M  V30 26 C 4.195888 0.484395 0.000000 0
M  V30 27 C 5.195873 0.484395 0.000000 0
M  V30 28 C 5.695866 -0.381618 0.000000 0
M  V30 29 C 5.195873 -1.247631 0.000000 0
M  V30 30 C 4.195888 -1.247631 0.000000 0
M  V30 END ATOM
M  V30 BEGIN BOND
M  V30 1 2 3 4
M  V30 2 1 4 5
M  V30 3 2 5 6
M  V30 4 1 6 7
M  V30 5 2 7 8
M  V30 6 1 8 9
M  V30 7 2 9 10
M  V30 8 1 10 11
M  V30 9 2 11 12
M  V30 10 1 7 13
M  V30 11 2 13 14
M  V30 12 1 13 15
M  V30 13 2 15 16
M  V30 14 1 16 17
M  V30 15 2 17 18
M  V30 16 1 18 19
M  V30 17 2 19 20
M  V30 18 1 20 21
M  V30 19 2 21 22
M  V30 20 1 22 23
M  V30 21 2 23 24
M  V30 22 1 19 25
M  V30 23 2 25 26
M  V30 24 1 26 27
M  V30 25 2 27 28
M  V30 26 1 28 29
M  V30 27 2 29 30
M  V30 28 1 12 3
M  V30 29 1 30 25
M  V30 30 1 10 5
M  V30 31 1 24 15
M  V30 32 1 22 17
M  V30 33 1 1 3
M  V30 34 1 2 28
M  V30 END BOND
M  V30 BEGIN SGROUP
M  V30 1 SRU 0 ATOMS=(4 1 2 3 28) CBONDS=(2 33 34) -
M  V30 BRKXYZ=(9 -6.2632 3.3683 0 -6.2632 -4.6315 0 0 0 0) BRKXYZ=(9 6.1959 3.-
M  V30 6183 0 6.1959 -4.3815 0 0 0 0)
M  V30 END SGROUP
M  V30 END CTAB
M  END
>  <BIGSMILES_BRACKET_RECORDS_JSON>
{
  "records": [
    {
      "id": 0,
      "bracket_kind": "backbone",
      "pairing_id": "F1/mergedFragments[0]",
      "group_id": "<1:3",
      "ru_midpoint": [
        -0.11479276379498415,
        -0.3815953663405332
      ],
      "bond_midpoint": [
        -6.2632385441378595,
        -0.6316190107203146
      ],
      "orientation_vector": [
        0.0,
        1.0
      ],
      "half_bracket_size": 3.999914963884419,
      "bond": [
        0,
        2
      ],
      "fragment": "F1",
      "backbone": true,
      "suspended_anchor_atom": null,
      "suspended_reason": null,
      "source_label": "F1/mergedFragments[0]",
      "marker_id": "0",
      "side": "left",
      "connection_group": "<1",
      "marker_type_index": 3
    },
    {
      "id": 1,
      "bracket_kind": "backbone",
      "pairing_id": "F1/mergedFragments[0]",
      "group_id": ">1:4",
      "ru_midpoint": [
        -0.11479276379498415,
        -0.3815953663405332
      ],
      "bond_midpoint": [
        6.195866093519992,
        -0.3816177314536386
      ],
      "orientation_vector": [
        0.0,
        1.0
      ],
      "half_bracket_size": 3.999914963884419,
      "bond": [
        1,
        27
      ],
      "fragment": "F1",
      "backbone": true,
      "suspended_anchor_atom": null,
      "suspended_reason": null,
      "source_label": "F1/mergedFragments[0]",
      "marker_id": "29",
      "side": "right",
      "connection_group": ">1",
      "marker_type_index": 4
    }
  ]
}
