
     RDKit          2D

  0  0  0  0  0  0  0  0  0  0999 V3000
M  V30 BEGIN CTAB
M  V30 COUNTS 43 48 1 0 0
M  V30 BEGIN ATOM
M  V30 1 H -8.764223 0.117978 0.000000 0
M  V30 2 H 8.897581 0.618473 0.000000 0
M  V30 3 C -7.898197 0.617978 0.000000 0
M  V30 4 O -7.898197 1.618002 0.000000 0
M  V30 5 C -7.032172 0.117978 0.000000 0
M  V30 6 C -6.166188 0.617954 0.000000 0
M  V30 7 C -5.300205 0.117978 0.000000 0
M  V30 8 C -5.300205 -0.881974 0.000000 0
M  V30 9 C -6.166188 -1.381950 0.000000 0
M  V30 10 C -7.032172 -0.881974 0.000000 0
M  V30 11 C -4.434179 -1.381974 0.000000 0
M  V30 12 O -3.625534 -1.970270 0.000000 0
M  V30 13 C -3.934847 -2.920498 0.000000 0
M  V30 14 O -3.348056 -3.730965 0.000000 0
M  V30 15 C -4.935991 -2.920912 0.000000 0
M  V30 16 C -5.603830 -3.661747 0.000000 0
M  V30 17 C -6.583785 -3.455688 0.000000 0
M  V30 18 C -6.890681 -2.504152 0.000000 0
M  V30 19 C -6.222946 -1.760407 0.000000 0
M  V30 20 C -5.242825 -1.969566 0.000000 0
M  V30 21 C -3.568154 -0.881974 0.000000 0
M  V30 22 C -3.568154 0.118373 0.000000 0
M  V30 23 C -2.701828 0.618547 0.000000 0
M  V30 24 C -1.835502 0.118373 0.000000 0
M  V30 25 C -1.835502 -0.881974 0.000000 0
M  V30 26 C -2.701828 -1.382147 0.000000 0
M  V30 27 C -0.969477 0.618373 0.000000 0
M  V30 28 O -0.969477 1.618305 0.000000 0
M  V30 29 N -0.103624 0.118473 0.000000 0
M  V30 30 C 0.896376 0.118473 0.000000 0
M  V30 31 C 1.396535 0.984774 0.000000 0
M  V30 32 C 2.396853 0.984774 0.000000 0
M  V30 33 C 2.897011 0.118473 0.000000 0
M  V30 34 C 2.396853 -0.747828 0.000000 0
M  V30 35 C 1.396535 -0.747828 0.000000 0
M  V30 36 O 3.897011 0.118473 0.000000 0
M  V30 37 C 4.897011 0.118473 0.000000 0
M  V30 38 C 5.397154 0.984745 0.000000 0
M  V30 39 C 6.397439 0.984745 0.000000 0
M  V30 40 C 6.897581 0.118473 0.000000 0
M  V30 41 C 6.397439 -0.747799 0.000000 0
M  V30 42 C 5.397154 -0.747799 0.000000 0
M  V30 43 N 7.897581 0.118473 0.000000 0
M  V30 END ATOM
M  V30 BEGIN BOND
M  V30 1 2 3 4
M  V30 2 1 3 5
M  V30 3 2 5 6
M  V30 4 1 6 7
M  V30 5 2 7 8
M  V30 6 1 8 9
M  V30 7 2 9 10
M  V30 8 1 8 11
M  V30 9 1 11 12
M  V30 10 1 12 13
M  V30 11 2 13 14
M  V30 12 1 13 15
M  V30 13 2 15 16
M  V30 14 1 16 17
M  V30 15 2 17 18
M  V30 16 1 18 19
M  V30 17 2 19 20
M  V30 18 1 11 21
M  V30 19 2 21 22
M  V30 20 1 22 23
M  V30 21 2 23 24
M  V30 22 1 24 25
M  V30 23 2 25 26
M  V30 24 1 24 27
M  V30 25 2 27 28
M  V30 26 1 27 29
M  V30 27 1 29 30
M  V30 28 2 30 31
M  V30 29 1 31 32
M  V30 30 2 32 33
M  V30 31 1 33 34
M  V30 32 2 34 35
M  V30 33 1 33 36
M  V30 34 1 36 37
M  V30 35 2 37 38
M  V30 36 1 38 39
M  V30 37 2 39 40
M  V30 38 1 40 41
M  V30 39 2 41 42
M  V30 40 1 40 43
M  V30 41 1 10 5
M  V30 42 1 35 30
M  V30 43 1 20 11
M  V30 44 1 42 37
M  V30 45 1 20 15
M  V30 46 1 26 21
M  V30 47 1 1 3
M  V30 48 1 2 43
M  V30 END BOND
M  V30 BEGIN SGROUP
M  V30 1 SRU 0 ATOMS=(4 1 2 3 43) CBONDS=(2 47 48) -
M  V30 BRKXYZ=(9 -8.3312 2.7349 0 -8.3312 -1.9989 0 0 0 0) BRKXYZ=(9 8.3976 2.-
M  V30 7354 0 8.3976 -1.9984 0 0 0 0)
M  V30 END SGROUP
M  V30 END CTAB
M  END
>  <BIGSMILES_BRACKET_RECORDS_JSON>
{
  "records": [
    {
      "id": 0,
      "bracket_kind": "backbone",
      "pairing_id": "F1/mergedFragments[0]",
      "group_id": "<1:3",
      "ru_midpoint": [
        -0.1847453347440018,
        -0.06921061748215673
      ],
      "bond_midpoint": [
        -8.331210129962603,
        0.3679781346016797
      ],
      "orientation_vector": [
        0.0,
        1.0
      ],
      "half_bracket_size": 2.3669208325990696,
      "bond": [
        0,
        2
      ],
      "fragment": "F1",
      "backbone": true,
      "suspended_anchor_atom": null,
      "suspended_reason": null,
      "source_label": "F1/mergedFragments[0]",
      "marker_id": "0",
      "side": "left",
      "connection_group": "<1",
      "marker_type_index": 3
    },
    {
      "id": 1,
      "bracket_kind": "backbone",
      "pairing_id": "F1/mergedFragments[0]",
      "group_id": ">1:4",
      "ru_midpoint": [
        -0.1847453347440018,
        -0.06921061748215673
      ],
      "bond_midpoint": [
        8.397580926495142,
        0.3684729618725302
      ],
      "orientation_vector": [
        0.0,
        1.0
      ],
      "half_bracket_size": 2.3669208325990696,
      "bond": [
        1,
        42
      ],
      "fragment": "F1",
      "backbone": true,
      "suspended_anchor_atom": null,
      "suspended_reason": null,
      "source_label": "F1/mergedFragments[0]",
      "marker_id": "42",
      "side": "right",
      "connection_group": ">1",
      "marker_type_index": 4
    }
  ]
}
