
     RDKit          2D

  0  0  0  0  0  0  0  0  0  0999 V3000
M  V30 BEGIN CTAB
M  V30 COUNTS 12 11 1 0 0
M  V30 BEGIN ATOM
M  V30 1 C 3.897019 -0.003178 0.000000 0
M  V30 2 C 4.763016 0.496722 0.000000 0
M  V30 3 C 5.629020 -0.003178 0.000000 0
M  V30 4 O 5.629022 -1.003178 0.000000 0
M  V30 5 O 9.093289 -0.003124 0.000000 0
M  V30 6 C 9.959286 0.496776 0.000000 0
M  V30 7 O 9.959284 1.496776 0.000000 0
M  V30 8 C 10.825290 -0.003124 0.000000 0
M  V30 9 C 11.691286 0.496776 0.000000 0
M  V30 10 O 6.495081 0.496760 0.000000 0
M  V30 11 C 7.361086 -0.003140 0.000000 0
M  V30 12 C 8.227197 0.496760 0.000000 0
M  V30 END ATOM
M  V30 BEGIN BOND
M  V30 1 2 1 2
M  V30 2 1 2 3
M  V30 3 2 3 4
M  V30 4 1 5 6
M  V30 5 2 6 7
M  V30 6 1 6 8
M  V30 7 2 8 9
M  V30 8 1 10 11
M  V30 9 1 11 12
M  V30 10 1 3 10
M  V30 11 1 5 12
M  V30 END BOND
M  V30 BEGIN SGROUP
M  V30 1 SRU 0 ATOMS=(4 3 5 10 12) CBONDS=(2 10 11) -
M  V30 BRKXYZ=(9 6.0621 -0.2531 0 6.0621 0.7467 0 0 0 0) BRKXYZ=(9 8.6602 -0.2-
M  V30 531 0 8.6602 0.7467 0 0 0 0)
M  V30 END SGROUP
M  V30 END CTAB
M  END
>  <BIGSMILES_BRACKET_RECORDS_JSON>
{
  "records": [
    {
      "id": 0,
      "bracket_kind": "backbone",
      "pairing_id": "F1/fragments[0]",
      "group_id": ">1:4",
      "ru_midpoint": [
        7.361153282653537,
        0.19681974520841106
      ],
      "bond_midpoint": [
        6.062050638333412,
        0.24679096284344818
      ],
      "orientation_vector": [
        0.0,
        -1.0
      ],
      "half_bracket_size": 0.49990016001536197,
      "bond": [
        2,
        9
      ],
      "fragment": "F1",
      "backbone": true,
      "suspended_anchor_atom": null,
      "suspended_reason": null,
      "source_label": "F1/fragments[0]",
      "marker_id": "0",
      "side": "left",
      "connection_group": ">1",
      "marker_type_index": 4
    },
    {
      "id": 1,
      "bracket_kind": "backbone",
      "pairing_id": "F1/fragments[0]",
      "group_id": "<1:3",
      "ru_midpoint": [
        7.361153282653537,
        0.19681974520841106
      ],
      "bond_midpoint": [
        8.660243312947749,
        0.24681775922860483
      ],
      "orientation_vector": [
        0.0,
        -1.0
      ],
      "half_bracket_size": 0.49990016001536197,
      "bond": [
        4,
        11
      ],
      "fragment": "F1",
      "backbone": true,
      "suspended_anchor_atom": null,
      "suspended_reason": null,
      "source_label": "F1/fragments[0]",
      "marker_id": "4",
      "side": "right",
      "connection_group": "<1",
      "marker_type_index": 3
    }
  ]
}
