
     RDKit          2D

  0  0  0  0  0  0  0  0  0  0999 V3000
M  V30 BEGIN CTAB
M  V30 COUNTS 32 31 2 0 0
M  V30 BEGIN ATOM
M  V30 1 O 9.618697 0.837051 0.000000 0
M  V30 2 C 13.082504 0.837105 0.000000 0
M  V30 3 O 13.082502 1.837105 0.000000 0
M  V30 4 C 13.948509 0.337205 0.000000 0
M  V30 5 C 13.948509 1.337136 0.000000 0
M  V30 6 C 13.948509 -0.662820 0.000000 0
M  V30 7 S 14.814505 0.837105 0.000000 0
M  V30 8 C 15.680509 0.337205 0.000000 0
M  V30 9 S 15.680509 -0.662796 0.000000 0
M  V30 10 S 16.546506 0.837105 0.000000 0
M  V30 11 C 19.144630 0.337071 0.000000 0
M  V30 12 C 20.010750 0.836971 0.000000 0
M  V30 13 C 20.876861 0.337071 0.000000 0
M  V30 14 C 21.742981 0.836971 0.000000 0
M  V30 15 C 22.609093 0.337071 0.000000 0
M  V30 16 C 23.475213 0.836971 0.000000 0
M  V30 17 C 24.341324 0.337071 0.000000 0
M  V30 18 C 25.207329 0.836971 0.000000 0
M  V30 19 C 26.073325 0.337071 0.000000 0
M  V30 20 C 26.939329 0.836971 0.000000 0
M  V30 21 C 27.805326 0.337071 0.000000 0
M  V30 22 C 28.671330 0.836971 0.000000 0
M  V30 23 C 10.484674 0.336967 0.000000 0
M  V30 24 C 11.350670 0.837067 0.000000 0
M  V30 25 O 12.216559 0.336967 0.000000 0
M  V30 26 C 17.412531 0.337105 0.000000 0
M  V30 27 C 17.412531 1.337129 0.000000 0
M  V30 28 C 17.412531 -0.662927 0.000000 0
M  V30 29 O 16.546558 -1.163019 0.000000 0
M  V30 30 O 18.278677 -1.162768 0.000000 0
M  V30 31 C 18.278677 -2.162800 0.000000 0
M  V30 32 C 18.278605 0.837071 0.000000 0
M  V30 END ATOM
M  V30 BEGIN BOND
M  V30 1 2 2 3
M  V30 2 1 2 4
M  V30 3 1 4 5
M  V30 4 1 4 6
M  V30 5 1 4 7
M  V30 6 1 7 8
M  V30 7 2 8 9
M  V30 8 1 8 10
M  V30 9 1 11 12
M  V30 10 1 12 13
M  V30 11 1 13 14
M  V30 12 1 14 15
M  V30 13 1 15 16
M  V30 14 1 16 17
M  V30 15 1 17 18
M  V30 16 1 18 19
M  V30 17 1 19 20
M  V30 18 1 20 21
M  V30 19 1 21 22
M  V30 20 1 23 24
M  V30 21 1 24 25
M  V30 22 1 1 23
M  V30 23 1 2 25
M  V30 24 1 26 27
M  V30 25 1 26 28
M  V30 26 2 28 29
M  V30 27 1 28 30
M  V30 28 1 30 31
M  V30 29 1 26 32
M  V30 30 1 10 26
M  V30 31 1 11 32
M  V30 END BOND
M  V30 BEGIN SGROUP
M  V30 1 SRU 0 ATOMS=(4 10 11 26 32) CBONDS=(2 30 31) -
M  V30 BRKXYZ=(9 16.9795 1.0871 0 16.9795 0.0871 0 0 0 0) BRKXYZ=(9 18.7116 1.-
M  V30 0870 0 18.7116 0.0871 0 0 0 0)
M  V30 2 SRU 0 ATOMS=(4 1 2 23 25) CBONDS=(2 22 23) -
M  V30 BRKXYZ=(9 10.0517 1.0871 0 10.0517 0.0869 0 0 0 0) BRKXYZ=(9 12.6495 1.-
M  V30 0871 0 12.6495 0.0869 0 0 0 0)
M  V30 END SGROUP
M  V30 END CTAB
M  END
>  <BIGSMILES_BRACKET_RECORDS_JSON>
{
  "records": [
    {
      "id": 0,
      "bracket_kind": "backbone",
      "pairing_id": "F2/fragments[0]",
      "group_id": "$a:2",
      "ru_midpoint": [
        17.845567774180036,
        0.5870876917496992
      ],
      "bond_midpoint": [
        16.979518298445225,
        0.5871047273301209
      ],
      "orientation_vector": [
        0.0,
        1.0
      ],
      "half_bracket_size": 0.4999659288391558,
      "bond": [
        9,
        25
      ],
      "fragment": "F2",
      "backbone": true,
      "suspended_anchor_atom": null,
      "suspended_reason": null,
      "source_label": "F2/fragments[0]",
      "marker_id": "0",
      "side": "left",
      "connection_group": "$a",
      "marker_type_index": 2
    },
    {
      "id": 1,
      "bracket_kind": "backbone",
      "pairing_id": "F2/fragments[0]",
      "group_id": "$a:2",
      "ru_midpoint": [
        17.845567774180036,
        0.5870876917496992
      ],
      "bond_midpoint": [
        18.711617249914845,
        0.5870706561692769
      ],
      "orientation_vector": [
        0.0,
        1.0
      ],
      "half_bracket_size": 0.4999659288391558,
      "bond": [
        10,
        31
      ],
      "fragment": "F2",
      "backbone": true,
      "suspended_anchor_atom": null,
      "suspended_reason": null,
      "source_label": "F2/fragments[0]",
      "marker_id": "8",
      "side": "right",
      "connection_group": "$a",
      "marker_type_index": 2
    },
    {
      "id": 2,
      "bracket_kind": "backbone",
      "pairing_id": "F1/fragments[0]",
      "group_id": "<1:3",
      "ru_midpoint": [
        11.350602113986342,
        0.6370270515754205
      ],
      "bond_midpoint": [
        10.051685289701394,
        0.5870090343619154
      ],
      "orientation_vector": [
        0.0,
        1.0
      ],
      "half_bracket_size": 0.5001001599500253,
      "bond": [
        0,
        22
      ],
      "fragment": "F1",
      "backbone": true,
      "suspended_anchor_atom": null,
      "suspended_reason": null,
      "source_label": "F1/fragments[0]",
      "marker_id": "0",
      "side": "left",
      "connection_group": "<1",
      "marker_type_index": 3
    },
    {
      "id": 3,
      "bracket_kind": "backbone",
      "pairing_id": "F1/fragments[0]",
      "group_id": ">1:4",
      "ru_midpoint": [
        11.350602113986342,
        0.6370270515754205
      ],
      "bond_midpoint": [
        12.649531541598904,
        0.5870358414677626
      ],
      "orientation_vector": [
        0.0,
        1.0
      ],
      "half_bracket_size": 0.5001001599500253,
      "bond": [
        1,
        24
      ],
      "fragment": "F1",
      "backbone": true,
      "suspended_anchor_atom": null,
      "suspended_reason": null,
      "source_label": "F1/fragments[0]",
      "marker_id": "4",
      "side": "right",
      "connection_group": ">1",
      "marker_type_index": 4
    }
  ]
}
