
     RDKit          2D

  0  0  0  0  0  0  0  0  0  0999 V3000
M  V30 BEGIN CTAB
M  V30 COUNTS 16 15 1 0 0
M  V30 BEGIN ATOM
M  V30 1 C 2.802715 -1.224556 0.000000 0
M  V30 2 Si 3.668675 -1.724519 0.000000 0 VAL=4
M  V30 3 C 3.668675 -0.724487 0.000000 0
M  V30 4 C 3.668675 -2.724451 0.000000 0
M  V30 5 O 4.534751 -1.224556 0.000000 0
M  V30 6 Si 5.400835 -1.724519 0.000000 0 VAL=4
M  V30 7 C 5.400835 -0.724487 0.000000 0
M  V30 8 C 5.400835 -2.724444 0.000000 0
M  V30 9 O 6.266911 -1.224556 0.000000 0
M  V30 10 Si 8.864865 -1.724606 0.000000 0 VAL=4
M  V30 11 C 8.864865 -2.724631 0.000000 0
M  V30 12 C 8.864865 -0.724674 0.000000 0
M  V30 13 C 9.730949 -1.224644 0.000000 0
M  V30 14 Si 7.132929 -1.724569 0.000000 0 RAD=2 VAL=3
M  V30 15 C 7.132929 -2.724493 0.000000 0
M  V30 16 O 7.998869 -1.224556 0.000000 0
M  V30 END ATOM
M  V30 BEGIN BOND
M  V30 1 1 1 2
M  V30 2 1 2 3
M  V30 3 1 2 4
M  V30 4 1 2 5
M  V30 5 1 5 6
M  V30 6 1 6 7
M  V30 7 1 6 8
M  V30 8 1 6 9
M  V30 9 1 10 11
M  V30 10 1 10 12
M  V30 11 1 10 13
M  V30 12 1 14 15
M  V30 13 1 14 16
M  V30 14 1 9 14
M  V30 15 1 10 16
M  V30 END BOND
M  V30 BEGIN SGROUP
M  V30 1 SRU 0 ATOMS=(4 9 10 14 16) CBONDS=(2 14 15) -
M  V30 BRKXYZ=(9 6.6999 -0.9746 0 6.6999 -1.9746 0 0 0 0) BRKXYZ=(9 8.4319 -0.-
M  V30 9746 0 8.4319 -1.9746 0 0 0 0)
M  V30 END SGROUP
M  V30 END CTAB
M  END
>  <BIGSMILES_BRACKET_RECORDS_JSON>
{
  "records": [
    {
      "id": 0,
      "bracket_kind": "backbone",
      "pairing_id": "F1/fragments[0]",
      "group_id": "<1:3",
      "ru_midpoint": [
        7.565876956257489,
        -1.4745623985861336
      ],
      "bond_midpoint": [
        6.699919768910188,
        -1.4745624785880675
      ],
      "orientation_vector": [
        0.0,
        1.0
      ],
      "half_bracket_size": 0.5000123282855893,
      "bond": [
        8,
        13
      ],
      "fragment": "F1",
      "backbone": true,
      "suspended_anchor_atom": null,
      "suspended_reason": null,
      "source_label": "F1/fragments[0]",
      "marker_id": "0",
      "side": "left",
      "connection_group": "<1",
      "marker_type_index": 3
    },
    {
      "id": 1,
      "bracket_kind": "backbone",
      "pairing_id": "F1/fragments[0]",
      "group_id": ">1:4",
      "ru_midpoint": [
        7.565876956257489,
        -1.4745623985861336
      ],
      "bond_midpoint": [
        8.431866844863245,
        -1.474581201170635
      ],
      "orientation_vector": [
        0.0,
        1.0
      ],
      "half_bracket_size": 0.5000123282855893,
      "bond": [
        9,
        15
      ],
      "fragment": "F1",
      "backbone": true,
      "suspended_anchor_atom": null,
      "suspended_reason": null,
      "source_label": "F1/fragments[0]",
      "marker_id": "4",
      "side": "right",
      "connection_group": ">1",
      "marker_type_index": 4
    }
  ]
}
