
     RDKit          2D

  0  0  0  0  0  0  0  0  0  0999 V3000
M  V30 BEGIN CTAB
M  V30 COUNTS 27 28 3 0 0
M  V30 BEGIN ATOM
M  V30 1 O -4.268189 0.852648 0.000000 0
M  V30 2 O 0.195867 0.852654 0.000000 0
M  V30 3 N 0.695867 -0.013371 0.000000 0
M  V30 4 C 0.195854 -0.879418 0.000000 0
M  V30 5 C 0.195854 -1.879424 0.000000 0
M  V30 6 C -0.804072 -0.879418 0.000000 0
M  V30 7 C 0.695867 -1.745466 0.000000 0
M  V30 8 C 1.695892 -1.745466 0.000000 0
M  V30 9 C 2.195904 -0.879418 0.000000 0
M  V30 10 C 1.695892 -0.013371 0.000000 0
M  V30 11 C 1.695892 0.986613 0.000000 0
M  V30 12 C 2.195892 0.852654 0.000000 0
M  V30 13 C -3.402168 1.352654 0.000000 0
M  V30 14 C -2.536208 0.852647 0.000000 0
M  V30 15 C -2.536208 -0.147355 0.000000 0
M  V30 16 C -3.402410 -0.647288 0.000000 0
M  V30 17 C -3.402210 -1.647290 0.000000 0
M  V30 18 C -2.536408 -2.147359 0.000000 0
M  V30 19 C -1.670207 -1.647426 0.000000 0
M  V30 20 C -1.670407 -0.647424 0.000000 0
M  V30 21 C -1.670187 1.352654 0.000000 0
M  V30 22 C -0.804133 0.852654 0.000000 0
M  V30 23 C -0.804133 1.852679 0.000000 0
M  V30 24 C -0.804133 -0.147378 0.000000 0
M  V30 25 O -1.670106 -0.647469 0.000000 0
M  V30 26 O 0.062013 -0.647218 0.000000 0
M  V30 27 C 0.062013 -1.647250 0.000000 0
M  V30 END ATOM
M  V30 BEGIN BOND
M  V30 1 1 2 3
M  V30 2 1 3 4
M  V30 3 1 4 5
M  V30 4 1 4 6
M  V30 5 1 4 7
M  V30 6 1 7 8
M  V30 7 1 8 9
M  V30 8 1 9 10
M  V30 9 1 10 11
M  V30 10 1 10 12
M  V30 11 1 10 3
M  V30 12 1 13 14
M  V30 13 1 14 15
M  V30 14 2 15 16
M  V30 15 1 16 17
M  V30 16 2 17 18
M  V30 17 1 18 19
M  V30 18 2 19 20
M  V30 19 1 20 15
M  V30 20 1 21 22
M  V30 21 1 22 23
M  V30 22 1 22 24
M  V30 23 2 24 25
M  V30 24 1 24 26
M  V30 25 1 26 27
M  V30 26 1 14 21
M  V30 27 1 1 13
M  V30 28 1 2 22
M  V30 END BOND
M  V30 BEGIN SGROUP
M  V30 1 SRU 0 ATOMS=(4 1 13 14 21) CBONDS=(2 26 27) -
M  V30 BRKXYZ=(9 -3.8352 1.6027 0 -3.8352 0.6026 0 0 0 0) BRKXYZ=(9 -2.1032 1.-
M  V30 6027 0 -2.1032 0.6026 0 0 0 0)
M  V30 2 SRU 0 ATOMS=(4 2 14 21 22) CBONDS=(2 26 28) -
M  V30 BRKXYZ=(9 -2.1032 1.6027 0 -2.1032 0.6026 0 0 0 0) BRKXYZ=(9 -0.3041 1.-
M  V30 3527 0 -0.3041 0.3526 0 0 0 0)
M  V30 3 SRU 0 ATOMS=(4 1 2 13 22) CBONDS=(2 27 28) -
M  V30 BRKXYZ=(9 -3.8352 5.1027 0 -3.8352 -2.8974 0 0 0 0) BRKXYZ=(9 -0.3041 4-
M  V30 .8527 0 -0.3041 -3.1474 0 0 0 0)
M  V30 END SGROUP
M  V30 END CTAB
M  END
>  <BIGSMILES_BRACKET_RECORDS_JSON>
{
  "records": [
    {
      "id": 0,
      "bracket_kind": "backbone",
      "pairing_id": "F1/fragments[0]",
      "group_id": "$a:2",
      "ru_midpoint": [
        -2.9692134246558837,
        1.1026508075688768
      ],
      "bond_midpoint": [
        -3.835178464255544,
        1.1026513075744355
      ],
      "orientation_vector": [
        0.0,
        1.0
      ],
      "half_bracket_size": 0.5000070589092322,
      "bond": [
        0,
        12
      ],
      "fragment": "F1",
      "backbone": true,
      "suspended_anchor_atom": null,
      "suspended_reason": null,
      "source_label": "F1/fragments[0]",
      "marker_id": "0",
      "side": "left",
      "connection_group": "$a",
      "marker_type_index": 2
    },
    {
      "id": 1,
      "bracket_kind": "backbone",
      "pairing_id": "F1/fragments[0]",
      "group_id": "$a:2",
      "ru_midpoint": [
        -2.9692134246558837,
        1.1026508075688768
      ],
      "bond_midpoint": [
        -2.1031977367990384,
        1.1026508075688766
      ],
      "orientation_vector": [
        0.0,
        1.0
      ],
      "half_bracket_size": 0.5000070589092322,
      "bond": [
        13,
        20
      ],
      "fragment": "F1",
      "backbone": true,
      "suspended_anchor_atom": null,
      "suspended_reason": null,
      "source_label": "F1/fragments[0]",
      "marker_id": "9",
      "side": "right",
      "connection_group": "$a",
      "marker_type_index": 2
    },
    {
      "id": 2,
      "bracket_kind": "backbone",
      "pairing_id": "F1/fragments[1]",
      "group_id": "$a:2",
      "ru_midpoint": [
        -1.2371601788995785,
        1.102654258458895
      ],
      "bond_midpoint": [
        -2.1031977367990384,
        1.1026508075688766
      ],
      "orientation_vector": [
        0.0,
        1.0
      ],
      "half_bracket_size": 0.5000070589092322,
      "bond": [
        13,
        20
      ],
      "fragment": "F1",
      "backbone": true,
      "suspended_anchor_atom": null,
      "suspended_reason": null,
      "source_label": "F1/fragments[1]",
      "marker_id": "0",
      "side": "left",
      "connection_group": "$a",
      "marker_type_index": 2
    },
    {
      "id": 3,
      "bracket_kind": "backbone",
      "pairing_id": "F1/fragments[1]",
      "group_id": "$a:2",
      "ru_midpoint": [
        -1.2371601788995785,
        1.102654258458895
      ],
      "bond_midpoint": [
        -0.304133285141587,
        0.8526541798942975
      ],
      "orientation_vector": [
        0.0,
        1.0
      ],
      "half_bracket_size": 0.5000070589092322,
      "bond": [
        1,
        21
      ],
      "fragment": "F1",
      "backbone": true,
      "suspended_anchor_atom": null,
      "suspended_reason": null,
      "source_label": "F1/fragments[1]",
      "marker_id": "8",
      "side": "right",
      "connection_group": "$a",
      "marker_type_index": 2
    },
    {
      "id": 4,
      "bracket_kind": "backbone",
      "pairing_id": "F1/connected",
      "group_id": "$overall",
      "ru_midpoint": [
        -2.1031790127076775,
        1.1026519578655494
      ],
      "bond_midpoint": [
        -3.835178464255544,
        1.1026513075744355
      ],
      "orientation_vector": [
        0.0,
        1.0
      ],
      "half_bracket_size": 4.000037961469187,
      "bond": [
        0,
        12
      ],
      "fragment": "F1",
      "backbone": true,
      "suspended_anchor_atom": null,
      "suspended_reason": null,
      "source_label": "F1/connected",
      "marker_id": "connected-overall-left",
      "side": "left",
      "connection_group": "$overall",
      "marker_type_index": null
    },
    {
      "id": 5,
      "bracket_kind": "backbone",
      "pairing_id": "F1/connected",
      "group_id": "$overall",
      "ru_midpoint": [
        -2.1031790127076775,
        1.1026519578655494
      ],
      "bond_midpoint": [
        -0.304133285141587,
        0.8526541798942975
      ],
      "orientation_vector": [
        0.0,
        1.0
      ],
      "half_bracket_size": 4.000037961469187,
      "bond": [
        1,
        21
      ],
      "fragment": "F1",
      "backbone": true,
      "suspended_anchor_atom": null,
      "suspended_reason": null,
      "source_label": "F1/connected",
      "marker_id": "connected-overall-right",
      "side": "right",
      "connection_group": "$overall",
      "marker_type_index": null
    }
  ]
}
