
     RDKit          2D

  0  0  0  0  0  0  0  0  0  0999 V3000
M  V30 BEGIN CTAB
M  V30 COUNTS 18 17 1 0 0
M  V30 BEGIN ATOM
M  V30 1 O -6.262442 0.022777 0.000000 0
M  V30 2 C 0.666384 0.022743 0.000000 0
M  V30 3 O 0.666386 1.022744 0.000000 0
M  V30 4 C 1.532380 -0.477357 0.000000 0
M  V30 5 C 2.398385 0.022743 0.000000 0
M  V30 6 C 3.264381 -0.477357 0.000000 0
M  V30 7 C 4.130385 0.022743 0.000000 0
M  V30 8 C 4.996381 -0.477357 0.000000 0
M  V30 9 O 4.996379 -1.477357 0.000000 0
M  V30 10 O 5.862386 0.022743 0.000000 0
M  V30 11 C -5.396375 -0.477150 0.000000 0
M  V30 12 O -5.396365 -1.477152 0.000000 0
M  V30 13 C -4.530392 0.022750 0.000000 0
M  V30 14 C -3.664371 -0.477150 0.000000 0
M  V30 15 C -2.798273 0.022750 0.000000 0
M  V30 16 C -1.931937 -0.477150 0.000000 0
M  V30 17 C -1.065838 0.022750 0.000000 0
M  V30 18 N -0.199703 -0.477150 0.000000 0
M  V30 END ATOM
M  V30 BEGIN BOND
M  V30 1 2 2 3
M  V30 2 1 2 4
M  V30 3 1 4 5
M  V30 4 1 5 6
M  V30 5 1 6 7
M  V30 6 1 7 8
M  V30 7 2 8 9
M  V30 8 1 8 10
M  V30 9 2 11 12
M  V30 10 1 11 13
M  V30 11 1 13 14
M  V30 12 1 14 15
M  V30 13 1 15 16
M  V30 14 1 16 17
M  V30 15 1 17 18
M  V30 16 1 1 11
M  V30 17 1 2 18
M  V30 END BOND
M  V30 BEGIN SGROUP
M  V30 1 SRU 0 ATOMS=(4 1 2 11 18) CBONDS=(2 16 17) -
M  V30 BRKXYZ=(9 -5.8294 0.2727 0 -5.8294 -0.7271 0 0 0 0) BRKXYZ=(9 0.2333 0.-
M  V30 2727 0 0.2333 -0.7271 0 0 0 0)
M  V30 END SGROUP
M  V30 END CTAB
M  END
>  <BIGSMILES_BRACKET_RECORDS_JSON>
{
  "records": [
    {
      "id": 0,
      "bracket_kind": "backbone",
      "pairing_id": "F1/fragments[0]",
      "group_id": ">1:4",
      "ru_midpoint": [
        -2.7980985448202453,
        -0.19942772223053767
      ],
      "bond_midpoint": [
        -5.829408231852787,
        -0.2271865315785366
      ],
      "orientation_vector": [
        0.0,
        1.0
      ],
      "half_bracket_size": 0.4999009998503262,
      "bond": [
        0,
        10
      ],
      "fragment": "F1",
      "backbone": true,
      "suspended_anchor_atom": null,
      "suspended_reason": null,
      "source_label": "F1/fragments[0]",
      "marker_id": "0",
      "side": "left",
      "connection_group": ">1",
      "marker_type_index": 4
    },
    {
      "id": 1,
      "bracket_kind": "backbone",
      "pairing_id": "F1/fragments[0]",
      "group_id": "<1:3",
      "ru_midpoint": [
        -2.7980985448202453,
        -0.19942772223053767
      ],
      "bond_midpoint": [
        0.23334065822198452,
        -0.22720352922631087
      ],
      "orientation_vector": [
        0.0,
        1.0
      ],
      "half_bracket_size": 0.4999009998503262,
      "bond": [
        1,
        17
      ],
      "fragment": "F1",
      "backbone": true,
      "suspended_anchor_atom": null,
      "suspended_reason": null,
      "source_label": "F1/fragments[0]",
      "marker_id": "9",
      "side": "right",
      "connection_group": "<1",
      "marker_type_index": 3
    }
  ]
}
