
     RDKit          2D

  0  0  0  0  0  0  0  0  0  0999 V3000
M  V30 BEGIN CTAB
M  V30 COUNTS 27 27 2 0 0
M  V30 BEGIN ATOM
M  V30 1 C 4.156904 -0.402597 0.000000 0
M  V30 2 C 5.022900 0.097503 0.000000 0
M  V30 3 C 5.888905 -0.402597 0.000000 0
M  V30 4 C 5.888905 -1.402597 0.000000 0
M  V30 5 H 10.219038 0.097334 0.000000 0
M  V30 6 C 6.754927 0.097409 0.000000 0
M  V30 7 C 7.620886 -0.402598 0.000000 0
M  V30 8 C 7.620886 -1.402600 0.000000 0
M  V30 9 C 6.754684 -1.902533 0.000000 0
M  V30 10 C 6.754884 -2.902535 0.000000 0
M  V30 11 C 7.620686 -3.402604 0.000000 0
M  V30 12 C 8.486888 -2.902671 0.000000 0
M  V30 13 C 8.486688 -1.902669 0.000000 0
M  V30 14 C 8.486972 0.097297 0.000000 0
M  V30 15 C 9.352976 -0.402604 0.000000 0
M  V30 16 C 9.352976 0.597428 0.000000 0
M  V30 17 C 9.352976 -1.402528 0.000000 0
M  V30 18 O 8.486911 -1.902459 0.000000 0
M  V30 19 O 10.218869 -1.902622 0.000000 0
M  V30 20 C 10.218819 -2.902460 0.000000 0
M  V30 21 C 11.084711 -3.402554 0.000000 0
M  V30 22 C 11.950777 -2.902624 0.000000 0
M  V30 23 C 12.816893 -3.402704 0.000000 0
M  V30 24 C 11.084711 -4.402479 0.000000 0
M  V30 25 C 11.950654 -4.902660 0.000000 0
M  V30 26 C 11.950431 -5.902598 0.000000 0
M  V30 27 C 12.816496 -6.402592 0.000000 0
M  V30 END ATOM
M  V30 BEGIN BOND
M  V30 1 1 1 2
M  V30 2 1 2 3
M  V30 3 1 3 4
M  V30 4 1 6 7
M  V30 5 1 7 8
M  V30 6 2 8 9
M  V30 7 1 9 10
M  V30 8 2 10 11
M  V30 9 1 11 12
M  V30 10 2 12 13
M  V30 11 1 13 8
M  V30 12 1 3 6
M  V30 13 1 14 15
M  V30 14 1 15 16
M  V30 15 1 15 17
M  V30 16 2 17 18
M  V30 17 1 17 19
M  V30 18 1 19 20
M  V30 19 1 20 21
M  V30 20 1 21 22
M  V30 21 1 22 23
M  V30 22 1 21 24
M  V30 23 1 24 25
M  V30 24 1 25 26
M  V30 25 1 26 27
M  V30 26 1 7 14
M  V30 27 1 5 15
M  V30 END BOND
M  V30 BEGIN SGROUP
M  V30 1 SRU 0 ATOMS=(4 5 7 14 15) CBONDS=(2 26 27) -
M  V30 BRKXYZ=(9 8.0539 0.3472 0 8.0539 -0.6526 0 0 0 0) BRKXYZ=(9 9.7860 0.34-
M  V30 73 0 9.7860 -0.6525 0 0 0 0)
M  V30 2 SRU 0 ATOMS=(4 3 6 7 14) CBONDS=(2 12 26) -
M  V30 BRKXYZ=(9 6.3219 0.3474 0 6.3219 -0.6526 0 0 0 0) BRKXYZ=(9 8.0539 0.34-
M  V30 74 0 8.0539 -0.6527 0 0 0 0)
M  V30 END SGROUP
M  V30 END CTAB
M  END
>  <BIGSMILES_BRACKET_RECORDS_JSON>
{
  "records": [
    {
      "id": 0,
      "bracket_kind": "backbone",
      "pairing_id": "F2/fragments[0]",
      "group_id": "$a:2",
      "ru_midpoint": [
        8.919949113759671,
        -0.15265351431049243
      ],
      "bond_midpoint": [
        8.053928798672938,
        -0.15265065368070513
      ],
      "orientation_vector": [
        0.0,
        1.0
      ],
      "half_bracket_size": 0.49990020042890976,
      "bond": [
        6,
        13
      ],
      "fragment": "F2",
      "backbone": true,
      "suspended_anchor_atom": null,
      "suspended_reason": null,
      "source_label": "F2/fragments[0]",
      "marker_id": "0",
      "side": "left",
      "connection_group": "$a",
      "marker_type_index": 2
    },
    {
      "id": 1,
      "bracket_kind": "backbone",
      "pairing_id": "F2/fragments[0]",
      "group_id": "$a:2",
      "ru_midpoint": [
        8.919949113759671,
        -0.15265351431049243
      ],
      "bond_midpoint": [
        9.786006950126879,
        -0.15263471594247358
      ],
      "orientation_vector": [
        0.0,
        1.0
      ],
      "half_bracket_size": 0.49990020042890976,
      "bond": [
        4,
        14
      ],
      "fragment": "F2",
      "backbone": true,
      "suspended_anchor_atom": null,
      "suspended_reason": null,
      "source_label": "F2/fragments[0]",
      "marker_id": "15",
      "side": "right",
      "connection_group": "$a",
      "marker_type_index": 2
    },
    {
      "id": 2,
      "bracket_kind": "backbone",
      "pairing_id": "F1/fragments[0]",
      "group_id": "$a:2",
      "ru_midpoint": [
        7.187880616110773,
        -0.15259436381075642
      ],
      "bond_midpoint": [
        6.321915576511112,
        -0.15259386380519768
      ],
      "orientation_vector": [
        0.0,
        1.0
      ],
      "half_bracket_size": 0.5000070589092322,
      "bond": [
        2,
        5
      ],
      "fragment": "F1",
      "backbone": true,
      "suspended_anchor_atom": null,
      "suspended_reason": null,
      "source_label": "F1/fragments[0]",
      "marker_id": "0",
      "side": "left",
      "connection_group": "$a",
      "marker_type_index": 2
    },
    {
      "id": 3,
      "bracket_kind": "backbone",
      "pairing_id": "F1/fragments[0]",
      "group_id": "$a:2",
      "ru_midpoint": [
        7.187880616110773,
        -0.15259436381075642
      ],
      "bond_midpoint": [
        8.053928798672938,
        -0.15265065368070513
      ],
      "orientation_vector": [
        0.0,
        1.0
      ],
      "half_bracket_size": 0.5000070589092322,
      "bond": [
        6,
        13
      ],
      "fragment": "F1",
      "backbone": true,
      "suspended_anchor_atom": null,
      "suspended_reason": null,
      "source_label": "F1/fragments[0]",
      "marker_id": "9",
      "side": "right",
      "connection_group": "$a",
      "marker_type_index": 2
    }
  ]
}
