
     RDKit          2D

  0  0  0  0  0  0  0  0  0  0999 V3000
M  V30 BEGIN CTAB
M  V30 COUNTS 18 17 5 0 0
M  V30 BEGIN ATOM
M  V30 1 H 0.433119 0.247739 0.000000 0
M  V30 2 H 11.691415 0.747811 0.000000 0
M  V30 3 C 1.299169 0.747711 0.000000 0
M  V30 4 C 2.165218 0.247739 0.000000 0
M  V30 5 C 3.031173 0.747711 0.000000 0
M  V30 6 C 3.897150 0.247739 0.000000 0
M  V30 7 C 4.763191 0.747711 0.000000 0
M  V30 8 C 5.629196 0.247811 0.000000 0
M  V30 9 C 6.495192 0.747711 0.000000 0
M  V30 10 C 7.361196 0.247811 0.000000 0
M  V30 11 C 8.227279 0.747711 0.000000 0
M  V30 12 C 9.093284 0.247811 0.000000 0
M  V30 13 C 9.093284 -0.752214 0.000000 0
M  V30 14 C 8.227131 -1.252058 0.000000 0
M  V30 15 Si 9.959309 0.747811 0.000000 0 VAL=4
M  V30 16 C 9.959309 -0.252114 0.000000 0
M  V30 17 C 9.959309 1.747835 0.000000 0
M  V30 18 O 10.825362 0.247795 0.000000 0
M  V30 END ATOM
M  V30 BEGIN BOND
M  V30 1 1 3 4
M  V30 2 2 4 5
M  V30 3 1 5 6
M  V30 4 1 7 8
M  V30 5 2 8 9
M  V30 6 1 9 10
M  V30 7 1 6 7
M  V30 8 1 11 12
M  V30 9 1 12 13
M  V30 10 2 13 14
M  V30 11 1 10 11
M  V30 12 1 1 3
M  V30 13 1 15 16
M  V30 14 1 15 17
M  V30 15 1 15 18
M  V30 16 1 12 15
M  V30 17 1 2 18
M  V30 END BOND
M  V30 BEGIN SGROUP
M  V30 1 SRU 0 ATOMS=(4 2 12 15 18) CBONDS=(2 16 17) -
M  V30 BRKXYZ=(9 9.5263 -0.0022 0 9.5263 0.9978 0 0 0 0) BRKXYZ=(9 11.2584 -0.-
M  V30 0022 0 11.2584 0.9978 0 0 0 0)
M  V30 2 SRU 0 ATOMS=(4 1 3 6 7) CBONDS=(2 7 12) -
M  V30 BRKXYZ=(9 0.8661 -0.0022 0 0.8661 0.9977 0 0 0 0) BRKXYZ=(9 4.3302 -0.0-
M  V30 022 0 4.3302 0.9977 0 0 0 0)
M  V30 3 SRU 0 ATOMS=(4 6 7 10 11) CBONDS=(2 7 11) -
M  V30 BRKXYZ=(9 4.3302 0.9977 0 4.3302 -0.0022 0 0 0 0) BRKXYZ=(9 7.7942 0.99-
M  V30 77 0 7.7942 -0.0022 0 0 0 0)
M  V30 4 SRU 0 ATOMS=(4 10 11 12 15) CBONDS=(2 11 16) -
M  V30 BRKXYZ=(9 7.7942 0.9977 0 7.7942 -0.0022 0 0 0 0) BRKXYZ=(9 9.5263 0.99-
M  V30 78 0 9.5263 -0.0022 0 0 0 0)
M  V30 5 SRU 0 ATOMS=(4 1 3 12 15) CBONDS=(2 12 16) -
M  V30 BRKXYZ=(9 0.8661 -1.5020 0 0.8661 2.4975 0 0 0 0) BRKXYZ=(9 9.5263 -1.5-
M  V30 020 0 9.5263 2.4976 0 0 0 0)
M  V30 END SGROUP
M  V30 END CTAB
M  END
>  <BIGSMILES_BRACKET_RECORDS_JSON>
{
  "records": [
    {
      "id": 0,
      "bracket_kind": "backbone",
      "pairing_id": "F2/fragments[0]",
      "group_id": "<1:3",
      "ru_midpoint": [
        10.392348490783373,
        0.4978088901550432
      ],
      "bond_midpoint": [
        9.526296434060669,
        0.49781072505781193
      ],
      "orientation_vector": [
        0.0,
        -1.0
      ],
      "half_bracket_size": 0.5000159997440081,
      "bond": [
        11,
        14
      ],
      "fragment": "F2",
      "backbone": true,
      "suspended_anchor_atom": null,
      "suspended_reason": null,
      "source_label": "F2/fragments[0]",
      "marker_id": "0",
      "side": "left",
      "connection_group": "<1",
      "marker_type_index": 3
    },
    {
      "id": 1,
      "bracket_kind": "backbone",
      "pairing_id": "F2/fragments[0]",
      "group_id": ">1:4",
      "ru_midpoint": [
        10.392348490783373,
        0.4978088901550432
      ],
      "bond_midpoint": [
        11.258388810183842,
        0.4978027251858078
      ],
      "orientation_vector": [
        0.0,
        -1.0
      ],
      "half_bracket_size": 0.5000159997440081,
      "bond": [
        1,
        17
      ],
      "fragment": "F2",
      "backbone": true,
      "suspended_anchor_atom": null,
      "suspended_reason": null,
      "source_label": "F2/fragments[0]",
      "marker_id": "5",
      "side": "right",
      "connection_group": ">1",
      "marker_type_index": 4
    },
    {
      "id": 2,
      "bracket_kind": "backbone",
      "pairing_id": "F1/fragments[0]",
      "group_id": "$a:2",
      "ru_midpoint": [
        2.5981518787790208,
        0.4977185161532365
      ],
      "bond_midpoint": [
        0.8661439568905558,
        0.4977250005347753
      ],
      "orientation_vector": [
        0.0,
        -1.0
      ],
      "half_bracket_size": 0.4999717690767955,
      "bond": [
        0,
        2
      ],
      "fragment": "F1",
      "backbone": true,
      "suspended_anchor_atom": null,
      "suspended_reason": null,
      "source_label": "F1/fragments[0]",
      "marker_id": "0",
      "side": "left",
      "connection_group": "$a",
      "marker_type_index": 2
    },
    {
      "id": 3,
      "bracket_kind": "backbone",
      "pairing_id": "F1/fragments[0]",
      "group_id": "$a:2",
      "ru_midpoint": [
        2.5981518787790208,
        0.4977185161532365
      ],
      "bond_midpoint": [
        4.33017055820204,
        0.49772500053477564
      ],
      "orientation_vector": [
        0.0,
        -1.0
      ],
      "half_bracket_size": 0.4999717690767955,
      "bond": [
        5,
        6
      ],
      "fragment": "F1",
      "backbone": true,
      "suspended_anchor_atom": null,
      "suspended_reason": null,
      "source_label": "F1/fragments[0]",
      "marker_id": "5",
      "side": "right",
      "connection_group": "$a",
      "marker_type_index": 2
    },
    {
      "id": 4,
      "bracket_kind": "backbone",
      "pairing_id": "F1/fragments[1]",
      "group_id": "$a:2",
      "ru_midpoint": [
        6.0621938718234585,
        0.4977608050654926
      ],
      "bond_midpoint": [
        4.33017055820204,
        0.49772500053477564
      ],
      "orientation_vector": [
        0.0,
        1.0
      ],
      "half_bracket_size": 0.4999717690767955,
      "bond": [
        5,
        6
      ],
      "fragment": "F1",
      "backbone": true,
      "suspended_anchor_atom": null,
      "suspended_reason": null,
      "source_label": "F1/fragments[1]",
      "marker_id": "0",
      "side": "left",
      "connection_group": "$a",
      "marker_type_index": 2
    },
    {
      "id": 5,
      "bracket_kind": "backbone",
      "pairing_id": "F1/fragments[1]",
      "group_id": "$a:2",
      "ru_midpoint": [
        6.0621938718234585,
        0.4977608050654926
      ],
      "bond_midpoint": [
        7.794237853670639,
        0.49776080506549286
      ],
      "orientation_vector": [
        0.0,
        1.0
      ],
      "half_bracket_size": 0.4999717690767955,
      "bond": [
        9,
        10
      ],
      "fragment": "F1",
      "backbone": true,
      "suspended_anchor_atom": null,
      "suspended_reason": null,
      "source_label": "F1/fragments[1]",
      "marker_id": "5",
      "side": "right",
      "connection_group": "$a",
      "marker_type_index": 2
    },
    {
      "id": 6,
      "bracket_kind": "backbone",
      "pairing_id": "F1/fragments[2]",
      "group_id": "$a:2",
      "ru_midpoint": [
        8.660303352991518,
        0.4977608050654928
      ],
      "bond_midpoint": [
        7.794237853670639,
        0.49776080506549286
      ],
      "orientation_vector": [
        0.0,
        1.0
      ],
      "half_bracket_size": 0.4999717690767955,
      "bond": [
        9,
        10
      ],
      "fragment": "F1",
      "backbone": true,
      "suspended_anchor_atom": null,
      "suspended_reason": null,
      "source_label": "F1/fragments[2]",
      "marker_id": "0",
      "side": "left",
      "connection_group": "$a",
      "marker_type_index": 2
    },
    {
      "id": 7,
      "bracket_kind": "backbone",
      "pairing_id": "F1/fragments[2]",
      "group_id": "$a:2",
      "ru_midpoint": [
        8.660303352991518,
        0.4977608050654928
      ],
      "bond_midpoint": [
        9.526296434060669,
        0.49781072505781193
      ],
      "orientation_vector": [
        0.0,
        1.0
      ],
      "half_bracket_size": 0.4999717690767955,
      "bond": [
        11,
        14
      ],
      "fragment": "F1",
      "backbone": true,
      "suspended_anchor_atom": null,
      "suspended_reason": null,
      "source_label": "F1/fragments[2]",
      "marker_id": "5",
      "side": "right",
      "connection_group": "$a",
      "marker_type_index": 2
    },
    {
      "id": 8,
      "bracket_kind": "backbone",
      "pairing_id": "F1/connected",
      "group_id": "$overall",
      "ru_midpoint": [
        5.196209320463099,
        0.49773641841859506
      ],
      "bond_midpoint": [
        0.8661439568905558,
        0.4977250005347753
      ],
      "orientation_vector": [
        0.0,
        -1.0
      ],
      "half_bracket_size": 1.9997688137103973,
      "bond": [
        0,
        2
      ],
      "fragment": "F1",
      "backbone": true,
      "suspended_anchor_atom": null,
      "suspended_reason": null,
      "source_label": "F1/connected",
      "marker_id": "connected-overall-left",
      "side": "left",
      "connection_group": "$overall",
      "marker_type_index": null
    },
    {
      "id": 9,
      "bracket_kind": "backbone",
      "pairing_id": "F1/connected",
      "group_id": "$overall",
      "ru_midpoint": [
        5.196209320463099,
        0.49773641841859506
      ],
      "bond_midpoint": [
        9.526296434060669,
        0.49781072505781193
      ],
      "orientation_vector": [
        0.0,
        -1.0
      ],
      "half_bracket_size": 1.9997688137103973,
      "bond": [
        11,
        14
      ],
      "fragment": "F1",
      "backbone": true,
      "suspended_anchor_atom": null,
      "suspended_reason": null,
      "source_label": "F1/connected",
      "marker_id": "connected-overall-right",
      "side": "right",
      "connection_group": "$overall",
      "marker_type_index": null
    }
  ]
}
