
     RDKit          2D

  0  0  0  0  0  0  0  0  0  0999 V3000
M  V30 BEGIN CTAB
M  V30 COUNTS 15 15 2 0 0
M  V30 BEGIN ATOM
M  V30 1 H -3.464168 0.051404 0.000000 0
M  V30 2 H 3.463755 0.051404 0.000000 0
M  V30 3 C -2.598209 -0.448604 0.000000 0
M  V30 4 N -1.732250 0.051404 0.000000 0
M  V30 5 C -0.866224 -0.448596 0.000000 0
M  V30 6 N -0.866224 -1.448584 0.000000 0
M  V30 7 C -0.000210 -1.948578 0.000000 0
M  V30 8 N -0.000210 -2.948698 0.000000 0
M  V30 9 C -0.866324 -3.448573 0.000000 0
M  V30 10 R -0.866278 -4.448618 0.000000 2
M  V30 11 N 0.865805 -1.448584 0.000000 0
M  V30 12 C 0.865805 -0.448596 0.000000 0
M  V30 13 N -0.000210 0.051397 0.000000 0
M  V30 14 N 1.731830 0.051404 0.000000 0
M  V30 15 C 2.597793 -0.448597 0.000000 0
M  V30 END ATOM
M  V30 BEGIN BOND
M  V30 1 1 3 4
M  V30 2 1 4 5
M  V30 3 2 5 6
M  V30 4 1 6 7
M  V30 5 1 7 8
M  V30 6 1 8 9
M  V30 7 1 9 10
M  V30 8 2 7 11
M  V30 9 1 11 12
M  V30 10 2 12 13
M  V30 11 1 12 14
M  V30 12 1 14 15
M  V30 13 1 5 13
M  V30 14 1 1 3
M  V30 15 1 2 15
M  V30 END BOND
M  V30 BEGIN SGROUP
M  V30 1 SRU 0 ATOMS=(4 1 2 3 15) CBONDS=(2 14 15) -
M  V30 BRKXYZ=(9 -3.0312 1.8014 0 -3.0312 -2.1986 0 0 0 0) BRKXYZ=(9 3.0308 1.-
M  V30 8014 0 3.0308 -2.1986 0 0 0 0)
M  V30 2 SRU 0 ATOMS=(2 9 10) CBONDS=(1 7) -
M  V30 BRKXYZ=(9 -0.3663 -3.9486 0 -1.3663 -3.9486 0 0 0 0)
M  V30 END SGROUP
M  V30 END CTAB
M  END
>  <BIGSMILES_BRACKET_RECORDS_JSON>
{
  "records": [
    {
      "id": 0,
      "bracket_kind": "backbone",
      "pairing_id": "F1/fragments[0]",
      "group_id": "$a:2",
      "ru_midpoint": [
        -0.0002096389043182434,
        -0.5319232844998505
      ],
      "bond_midpoint": [
        -3.031188454422987,
        -0.1985999999999999
      ],
      "orientation_vector": [
        0.0,
        1.0
      ],
      "half_bracket_size": 1.9999810346704465,
      "bond": [
        0,
        2
      ],
      "fragment": "F1",
      "backbone": true,
      "suspended_anchor_atom": null,
      "suspended_reason": null,
      "source_label": "F1/fragments[0]",
      "marker_id": "0",
      "side": "left",
      "connection_group": "$a",
      "marker_type_index": 2
    },
    {
      "id": 1,
      "bracket_kind": "backbone",
      "pairing_id": "F1/fragments[0]",
      "group_id": "$a:2",
      "ru_midpoint": [
        -0.0002096389043182434,
        -0.5319232844998505
      ],
      "bond_midpoint": [
        3.0307738418476196,
        -0.19859696977417807
      ],
      "orientation_vector": [
        0.0,
        1.0
      ],
      "half_bracket_size": 1.9999810346704465,
      "bond": [
        1,
        14
      ],
      "fragment": "F1",
      "backbone": true,
      "suspended_anchor_atom": null,
      "suspended_reason": null,
      "source_label": "F1/fragments[0]",
      "marker_id": "14",
      "side": "right",
      "connection_group": "$a",
      "marker_type_index": 2
    },
    {
      "id": 2,
      "bracket_kind": "pendant",
      "pairing_id": "F1/fragments[0]",
      "group_id": "$a:2",
      "ru_midpoint": [
        -0.0002096389043182434,
        -0.5319232844998505
      ],
      "bond_midpoint": [
        -0.8663008558765268,
        -3.9485954002704244
      ],
      "orientation_vector": [
        0.9999999989406351,
        4.6029662328186846e-05
      ],
      "half_bracket_size": 0.5000228894760721,
      "bond": [
        8,
        9
      ],
      "fragment": "F1",
      "backbone": false,
      "suspended_anchor_atom": null,
      "suspended_reason": null,
      "source_label": "F1/fragments[0]",
      "marker_id": "8",
      "side": "right",
      "connection_group": "$a",
      "marker_type_index": 2
    }
  ]
}
