
     RDKit          2D

  0  0  0  0  0  0  0  0  0  0999 V3000
M  V30 BEGIN CTAB
M  V30 COUNTS 18 19 2 0 0
M  V30 BEGIN ATOM
M  V30 1 H 3.897355 -0.252456 0.000000 0
M  V30 2 H 8.227213 0.247550 0.000000 0
M  V30 3 C 4.763314 0.247551 0.000000 0
M  V30 4 C 5.629273 -0.252456 0.000000 0
M  V30 5 C 5.629273 -1.252458 0.000000 0
M  V30 6 C 4.763071 -1.752391 0.000000 0
M  V30 7 C 4.763271 -2.752393 0.000000 0
M  V30 8 C 5.629073 -3.252462 0.000000 0
M  V30 9 C 6.495275 -2.752529 0.000000 0
M  V30 10 C 6.495075 -1.752527 0.000000 0
M  V30 11 C 6.495295 0.247550 0.000000 0
M  V30 12 C 7.361254 -0.252457 0.000000 0
M  V30 13 C 7.361254 -1.252459 0.000000 0
M  V30 14 N 6.495052 -1.752392 0.000000 0
M  V30 15 C 6.495252 -2.752394 0.000000 0
M  V30 16 C 7.361054 -3.252463 0.000000 0
M  V30 17 C 8.227256 -2.752530 0.000000 0
M  V30 18 C 8.227056 -1.752528 0.000000 0
M  V30 END ATOM
M  V30 BEGIN BOND
M  V30 1 1 3 4
M  V30 2 1 4 5
M  V30 3 2 5 6
M  V30 4 1 6 7
M  V30 5 2 7 8
M  V30 6 1 8 9
M  V30 7 2 9 10
M  V30 8 1 10 5
M  V30 9 1 1 3
M  V30 10 1 11 12
M  V30 11 1 12 13
M  V30 12 2 13 14
M  V30 13 1 14 15
M  V30 14 2 15 16
M  V30 15 1 16 17
M  V30 16 2 17 18
M  V30 17 1 18 13
M  V30 18 1 4 11
M  V30 19 1 2 12
M  V30 END BOND
M  V30 BEGIN SGROUP
M  V30 1 SRU 0 ATOMS=(4 2 4 11 12) CBONDS=(2 18 19) -
M  V30 BRKXYZ=(9 6.0623 0.4976 0 6.0623 -0.5025 0 0 0 0) BRKXYZ=(9 7.7942 0.49-
M  V30 76 0 7.7942 -0.5025 0 0 0 0)
M  V30 2 SRU 0 ATOMS=(4 1 3 4 11) CBONDS=(2 9 18) -
M  V30 BRKXYZ=(9 4.3303 0.4976 0 4.3303 -0.5025 0 0 0 0) BRKXYZ=(9 6.0623 0.49-
M  V30 76 0 6.0623 -0.5025 0 0 0 0)
M  V30 END SGROUP
M  V30 END CTAB
M  END
>  <BIGSMILES_BRACKET_RECORDS_JSON>
{
  "records": [
    {
      "id": 0,
      "bracket_kind": "backbone",
      "pairing_id": "F2/fragments[0]",
      "group_id": "$a:2",
      "ru_midpoint": [
        6.928230343377922,
        -0.002475072402950973
      ],
      "bond_midpoint": [
        6.062283965154301,
        -0.002453014304934109
      ],
      "orientation_vector": [
        0.0,
        1.0
      ],
      "half_bracket_size": 0.5000070589092322,
      "bond": [
        3,
        10
      ],
      "fragment": "F2",
      "backbone": true,
      "suspended_anchor_atom": null,
      "suspended_reason": null,
      "source_label": "F2/fragments[0]",
      "marker_id": "0",
      "side": "left",
      "connection_group": "$a",
      "marker_type_index": 2
    },
    {
      "id": 1,
      "bracket_kind": "backbone",
      "pairing_id": "F2/fragments[0]",
      "group_id": "$a:2",
      "ru_midpoint": [
        6.928230343377922,
        -0.002475072402950973
      ],
      "bond_midpoint": [
        7.794233583714428,
        -0.002453514310493121
      ],
      "orientation_vector": [
        0.0,
        1.0
      ],
      "half_bracket_size": 0.5000070589092322,
      "bond": [
        1,
        11
      ],
      "fragment": "F2",
      "backbone": true,
      "suspended_anchor_atom": null,
      "suspended_reason": null,
      "source_label": "F2/fragments[0]",
      "marker_id": "9",
      "side": "right",
      "connection_group": "$a",
      "marker_type_index": 2
    },
    {
      "id": 2,
      "bracket_kind": "backbone",
      "pairing_id": "F1/fragments[0]",
      "group_id": "$a:2",
      "ru_midpoint": [
        5.196299386193834,
        -0.0024530143049336095
      ],
      "bond_midpoint": [
        4.330334346594173,
        -0.002452514299375097
      ],
      "orientation_vector": [
        0.0,
        1.0
      ],
      "half_bracket_size": 0.5000070589092322,
      "bond": [
        0,
        2
      ],
      "fragment": "F1",
      "backbone": true,
      "suspended_anchor_atom": null,
      "suspended_reason": null,
      "source_label": "F1/fragments[0]",
      "marker_id": "0",
      "side": "left",
      "connection_group": "$a",
      "marker_type_index": 2
    },
    {
      "id": 3,
      "bracket_kind": "backbone",
      "pairing_id": "F1/fragments[0]",
      "group_id": "$a:2",
      "ru_midpoint": [
        5.196299386193834,
        -0.0024530143049336095
      ],
      "bond_midpoint": [
        6.062283965154301,
        -0.002453014304934109
      ],
      "orientation_vector": [
        0.0,
        1.0
      ],
      "half_bracket_size": 0.5000070589092322,
      "bond": [
        3,
        10
      ],
      "fragment": "F1",
      "backbone": true,
      "suspended_anchor_atom": null,
      "suspended_reason": null,
      "source_label": "F1/fragments[0]",
      "marker_id": "9",
      "side": "right",
      "connection_group": "$a",
      "marker_type_index": 2
    }
  ]
}
