
     RDKit          2D

  0  0  0  0  0  0  0  0  0  0999 V3000
M  V30 BEGIN CTAB
M  V30 COUNTS 17 17 2 0 0
M  V30 BEGIN ATOM
M  V30 1 H 3.897171 -0.252469 0.000000 0
M  V30 2 H 8.227219 0.247538 0.000000 0
M  V30 3 C 4.763225 0.247532 0.000000 0
M  V30 4 C 5.629279 -0.252469 0.000000 0
M  V30 5 C 5.629279 0.747556 0.000000 0
M  V30 6 C 5.629279 -1.252501 0.000000 0
M  V30 7 O 4.763306 -1.752592 0.000000 0
M  V30 8 O 6.495425 -1.752341 0.000000 0
M  V30 9 C 6.495425 -2.752373 0.000000 0
M  V30 10 C 6.495301 0.247538 0.000000 0
M  V30 11 C 7.361260 -0.252470 0.000000 0
M  V30 12 C 7.361260 -1.252472 0.000000 0
M  V30 13 C 6.495058 -1.752405 0.000000 0
M  V30 14 C 6.495258 -2.752407 0.000000 0
M  V30 15 C 7.361060 -3.252476 0.000000 0
M  V30 16 C 8.227262 -2.752543 0.000000 0
M  V30 17 C 8.227062 -1.752541 0.000000 0
M  V30 END ATOM
M  V30 BEGIN BOND
M  V30 1 1 3 4
M  V30 2 1 4 5
M  V30 3 1 4 6
M  V30 4 2 6 7
M  V30 5 1 6 8
M  V30 6 1 8 9
M  V30 7 1 1 3
M  V30 8 1 10 11
M  V30 9 1 11 12
M  V30 10 2 12 13
M  V30 11 1 13 14
M  V30 12 2 14 15
M  V30 13 1 15 16
M  V30 14 2 16 17
M  V30 15 1 17 12
M  V30 16 1 4 10
M  V30 17 1 2 11
M  V30 END BOND
M  V30 BEGIN SGROUP
M  V30 1 SRU 0 ATOMS=(4 2 4 10 11) CBONDS=(2 16 17) -
M  V30 BRKXYZ=(9 6.0623 0.4975 0 6.0623 -0.5025 0 0 0 0) BRKXYZ=(9 7.7942 0.49-
M  V30 75 0 7.7942 -0.5025 0 0 0 0)
M  V30 2 SRU 0 ATOMS=(4 1 3 4 10) CBONDS=(2 7 16) -
M  V30 BRKXYZ=(9 4.3302 0.4975 0 4.3302 -0.5025 0 0 0 0) BRKXYZ=(9 6.0623 0.49-
M  V30 75 0 6.0623 -0.5025 0 0 0 0)
M  V30 END SGROUP
M  V30 END CTAB
M  END
>  <BIGSMILES_BRACKET_RECORDS_JSON>
{
  "records": [
    {
      "id": 0,
      "bracket_kind": "backbone",
      "pairing_id": "F2/fragments[0]",
      "group_id": "$a:2",
      "ru_midpoint": [
        6.928235951531238,
        -0.0024875659844874054
      ],
      "bond_midpoint": [
        6.062289573307617,
        -0.0024655078864705415
      ],
      "orientation_vector": [
        0.0,
        1.0
      ],
      "half_bracket_size": 0.5000070589092322,
      "bond": [
        3,
        9
      ],
      "fragment": "F2",
      "backbone": true,
      "suspended_anchor_atom": null,
      "suspended_reason": null,
      "source_label": "F2/fragments[0]",
      "marker_id": "0",
      "side": "left",
      "connection_group": "$a",
      "marker_type_index": 2
    },
    {
      "id": 1,
      "bracket_kind": "backbone",
      "pairing_id": "F2/fragments[0]",
      "group_id": "$a:2",
      "ru_midpoint": [
        6.928235951531238,
        -0.0024875659844874054
      ],
      "bond_midpoint": [
        7.794239191867744,
        -0.0024660078920295536
      ],
      "orientation_vector": [
        0.0,
        1.0
      ],
      "half_bracket_size": 0.5000070589092322,
      "bond": [
        1,
        10
      ],
      "fragment": "F2",
      "backbone": true,
      "suspended_anchor_atom": null,
      "suspended_reason": null,
      "source_label": "F2/fragments[0]",
      "marker_id": "9",
      "side": "right",
      "connection_group": "$a",
      "marker_type_index": 2
    },
    {
      "id": 2,
      "bracket_kind": "backbone",
      "pairing_id": "F1/fragments[0]",
      "group_id": "$a:2",
      "ru_midpoint": [
        5.196227652878395,
        -0.002451422024230987
      ],
      "bond_midpoint": [
        4.33019793920878,
        -0.0024684587709299377
      ],
      "orientation_vector": [
        0.0,
        1.0
      ],
      "half_bracket_size": 0.500000157129195,
      "bond": [
        0,
        2
      ],
      "fragment": "F1",
      "backbone": true,
      "suspended_anchor_atom": null,
      "suspended_reason": null,
      "source_label": "F1/fragments[0]",
      "marker_id": "0",
      "side": "left",
      "connection_group": "$a",
      "marker_type_index": 2
    },
    {
      "id": 3,
      "bracket_kind": "backbone",
      "pairing_id": "F1/fragments[0]",
      "group_id": "$a:2",
      "ru_midpoint": [
        5.196227652878395,
        -0.002451422024230987
      ],
      "bond_midpoint": [
        6.062289573307617,
        -0.0024655078864705415
      ],
      "orientation_vector": [
        0.0,
        1.0
      ],
      "half_bracket_size": 0.500000157129195,
      "bond": [
        3,
        9
      ],
      "fragment": "F1",
      "backbone": true,
      "suspended_anchor_atom": null,
      "suspended_reason": null,
      "source_label": "F1/fragments[0]",
      "marker_id": "8",
      "side": "right",
      "connection_group": "$a",
      "marker_type_index": 2
    }
  ]
}
