
     RDKit          2D

  0  0  0  0  0  0  0  0  0  0999 V3000
M  V30 BEGIN CTAB
M  V30 COUNTS 43 47 2 0 0
M  V30 BEGIN ATOM
M  V30 1 C 6.400404 -1.186970 0.000000 0
M  V30 2 C 7.400414 -1.186970 0.000000 0
M  V30 3 C 7.900420 -2.053004 0.000000 0
M  V30 4 C 7.400414 -2.919038 0.000000 0
M  V30 5 C 6.400404 -2.919038 0.000000 0
M  V30 6 C 5.900399 -2.053004 0.000000 0
M  V30 7 C 4.900399 -2.053004 0.000000 0
M  V30 8 C 4.034315 -1.553042 0.000000 0
M  V30 9 C -4.384835 -2.841467 0.000000 0
M  V30 10 C -5.250795 -2.341505 0.000000 0
M  V30 11 C -4.384835 -1.841435 0.000000 0
M  V30 12 C -4.384835 -3.841399 0.000000 0
M  V30 13 C 0.867535 -2.841496 0.000000 0
M  V30 14 C 1.730683 -2.342504 0.000000 0
M  V30 15 C 2.595211 -2.845089 0.000000 0
M  V30 16 C 3.484885 -2.388581 0.000000 0
M  V30 17 C 3.359630 -4.264985 0.000000 0
M  V30 18 C 4.021875 -4.884165 0.000000 0
M  V30 19 C 4.032718 -3.887423 0.000000 0
M  V30 20 C 2.637182 -3.808477 0.000000 0
M  V30 21 C 2.017750 -4.702937 0.000000 0
M  V30 22 C 1.016018 -4.691233 0.000000 0
M  V30 23 O 0.525183 -3.821167 0.000000 0
M  V30 24 C -0.474562 -3.810762 0.000000 0
M  V30 25 C 0.509610 -5.551878 0.000000 0
M  V30 26 C 0.998553 -6.422549 0.000000 0
M  V30 27 C 1.999099 -6.433038 0.000000 0
M  V30 28 O 2.490395 -7.303357 0.000000 0
M  V30 29 C 3.490385 -7.313888 0.000000 0
M  V30 30 C 2.505901 -5.572998 0.000000 0
M  V30 31 C -0.083521 -2.532479 0.000000 0
M  V30 32 C -0.892581 -3.120295 0.000000 0
M  V30 33 C -0.392554 -1.581372 0.000000 0
M  V30 34 C -1.392607 -1.581372 0.000000 0
M  V30 35 C -1.980347 -0.772418 0.000000 0
M  V30 36 O -2.974826 -0.876962 0.000000 0
M  V30 37 Si -3.562606 -0.067943 0.000000 0 VAL=4
M  V30 38 C -2.753587 0.519837 0.000000 0
M  V30 39 C -3.667150 0.926536 0.000000 0
M  V30 40 C -4.556902 -0.172569 0.000000 0
M  V30 41 C -1.701641 -2.532479 0.000000 0
M  V30 42 C -2.652697 -2.841496 0.000000 0
M  V30 43 C -3.518793 -2.341497 0.000000 0
M  V30 END ATOM
M  V30 BEGIN BOND
M  V30 1 2 1 2
M  V30 2 1 2 3
M  V30 3 2 3 4
M  V30 4 1 4 5
M  V30 5 2 5 6
M  V30 6 1 6 7
M  V30 7 2 7 8 CFG=2
M  V30 8 1 9 10
M  V30 9 1 9 11
M  V30 10 1 9 12
M  V30 11 1 6 1
M  V30 12 2 13 14 CFG=2
M  V30 13 1 14 15
M  V30 14 1 15 16
M  V30 15 1 16 17
M  V30 16 1 17 18
M  V30 17 2 18 19
M  V30 18 1 19 20
M  V30 19 1 20 21
M  V30 20 2 21 22
M  V30 21 1 22 23
M  V30 22 1 23 24
M  V30 23 1 22 25
M  V30 24 2 25 26
M  V30 25 1 26 27
M  V30 26 1 27 28
M  V30 27 1 28 29
M  V30 28 2 27 30
M  V30 29 1 20 15
M  V30 30 1 30 21
M  V30 31 1 30 17
M  V30 32 1 8 16
M  V30 33 1 31 32
M  V30 34 1 31 33
M  V30 35 1 33 34
M  V30 36 1 34 35
M  V30 37 1 35 36
M  V30 38 1 36 37
M  V30 39 1 37 38
M  V30 40 1 37 39
M  V30 41 1 37 40
M  V30 42 1 34 41
M  V30 43 1 41 42
M  V30 44 2 42 43 CFG=2
M  V30 45 1 41 32
M  V30 46 1 9 43
M  V30 47 1 13 31
M  V30 END BOND
M  V30 BEGIN SGROUP
M  V30 1 SRU 0 ATOMS=(4 9 13 31 43) CBONDS=(2 46 47) -
M  V30 BRKXYZ=(9 0.3920 -4.2259 0 0.3920 -1.1481 0 0 0 0) BRKXYZ=(9 -3.9518 -4-
M  V30 .1304 0 -3.9518 -1.0526 0 0 0 0)
M  V30 2 SRU 0 ATOMS=(4 8 13 16 31) CBONDS=(2 32 47) -
M  V30 BRKXYZ=(9 0.3920 2.1930 0 0.3920 -7.5670 0 0 0 0) BRKXYZ=(9 3.7596 2.90-
M  V30 92 0 3.7596 -6.8508 0 0 0 0)
M  V30 END SGROUP
M  V30 END CTAB
M  END
>  <BIGSMILES_BRACKET_RECORDS_JSON>
{
  "records": [
    {
      "id": 0,
      "bracket_kind": "backbone",
      "pairing_id": "F2/fragments[0]",
      "group_id": "<1:3",
      "ru_midpoint": [
        -1.5724159181266186,
        -2.4682201835956294
      ],
      "bond_midpoint": [
        0.3920071462805952,
        -2.686987395481146
      ],
      "orientation_vector": [
        0.0,
        -1.0
      ],
      "half_bracket_size": 1.5389229995059504,
      "bond": [
        12,
        30
      ],
      "fragment": "F2",
      "backbone": true,
      "suspended_anchor_atom": null,
      "suspended_reason": null,
      "source_label": "F2/fragments[0]",
      "marker_id": "0",
      "side": "left",
      "connection_group": "<1",
      "marker_type_index": 3
    },
    {
      "id": 1,
      "bracket_kind": "backbone",
      "pairing_id": "F2/fragments[0]",
      "group_id": ">1:4",
      "ru_midpoint": [
        -1.5724159181266186,
        -2.4682201835956294
      ],
      "bond_midpoint": [
        -3.951813770803977,
        -2.59148182394347
      ],
      "orientation_vector": [
        0.0,
        -1.0
      ],
      "half_bracket_size": 1.5389229995059504,
      "bond": [
        8,
        42
      ],
      "fragment": "F2",
      "backbone": true,
      "suspended_anchor_atom": null,
      "suspended_reason": null,
      "source_label": "F2/fragments[0]",
      "marker_id": "14",
      "side": "right",
      "connection_group": ">1",
      "marker_type_index": 4
    },
    {
      "id": 2,
      "bracket_kind": "backbone",
      "pairing_id": "F1/fragments[0]",
      "group_id": ">1:4",
      "ru_midpoint": [
        2.23840862442147,
        -4.033306131080634
      ],
      "bond_midpoint": [
        0.3920071462805952,
        -2.686987395481146
      ],
      "orientation_vector": [
        0.0,
        1.0
      ],
      "half_bracket_size": 4.879996490782969,
      "bond": [
        12,
        30
      ],
      "fragment": "F1",
      "backbone": true,
      "suspended_anchor_atom": null,
      "suspended_reason": null,
      "source_label": "F1/fragments[0]",
      "marker_id": "0",
      "side": "left",
      "connection_group": ">1",
      "marker_type_index": 4
    },
    {
      "id": 3,
      "bracket_kind": "backbone",
      "pairing_id": "F1/fragments[0]",
      "group_id": "<1:3",
      "ru_midpoint": [
        2.23840862442147,
        -4.033306131080634
      ],
      "bond_midpoint": [
        3.7596003564214353,
        -1.9708115377214392
      ],
      "orientation_vector": [
        0.0,
        1.0
      ],
      "half_bracket_size": 4.879996490782969,
      "bond": [
        7,
        15
      ],
      "fragment": "F1",
      "backbone": true,
      "suspended_anchor_atom": null,
      "suspended_reason": null,
      "source_label": "F1/fragments[0]",
      "marker_id": "19",
      "side": "right",
      "connection_group": "<1",
      "marker_type_index": 3
    }
  ]
}
