
     RDKit          2D

  0  0  0  0  0  0  0  0  0  0999 V3000
M  V30 BEGIN CTAB
M  V30 COUNTS 27 26 6 0 0
M  V30 BEGIN ATOM
M  V30 1 H -0.866060 0.218149 0.000000 0
M  V30 2 H 12.990334 0.218064 0.000000 0
M  V30 3 C -0.000077 -0.281952 0.000000 0
M  V30 4 O -0.000068 -1.281954 0.000000 0
M  V30 5 C 0.865906 0.218149 0.000000 0
M  V30 6 C 0.865906 1.218151 0.000000 0
M  V30 7 O 1.732126 -0.281952 0.000000 0
M  V30 8 C 2.598143 0.218064 0.000000 0
M  V30 9 C 3.464072 -0.281952 0.000000 0
M  V30 10 C 4.330089 0.218064 0.000000 0
M  V30 11 C 4.330089 1.218089 0.000000 0
M  V30 12 C 5.196142 -0.281952 0.000000 0
M  V30 13 C 6.062158 0.218064 0.000000 0
M  V30 14 C 6.928162 -0.281836 0.000000 0
M  V30 15 C 7.794158 0.218064 0.000000 0
M  V30 16 C 7.794158 1.218064 0.000000 0
M  V30 17 C 8.660163 -0.281836 0.000000 0
M  V30 18 C 9.526246 0.218064 0.000000 0
M  V30 19 C 10.392242 -0.281836 0.000000 0
M  V30 20 C 10.392242 -1.281768 0.000000 0
M  V30 21 C 9.526356 -1.781858 0.000000 0
M  V30 22 C 11.258302 -1.781710 0.000000 0
M  V30 23 C 11.258325 0.218064 0.000000 0
M  V30 24 C 12.124329 -0.281836 0.000000 0
M  V30 25 C 12.124329 0.718089 0.000000 0
M  V30 26 C 12.124329 -1.281761 0.000000 0
M  V30 27 C 11.258437 -1.781855 0.000000 0
M  V30 END ATOM
M  V30 BEGIN BOND
M  V30 1 2 3 4
M  V30 2 1 3 5
M  V30 3 1 5 6
M  V30 4 1 5 7
M  V30 5 1 1 3
M  V30 6 1 8 9
M  V30 7 2 9 10
M  V30 8 1 10 11
M  V30 9 1 10 12
M  V30 10 1 13 14
M  V30 11 2 14 15
M  V30 12 1 15 16
M  V30 13 1 15 17
M  V30 14 1 12 13
M  V30 15 1 18 19
M  V30 16 1 19 20
M  V30 17 1 20 21
M  V30 18 2 20 22
M  V30 19 1 17 18
M  V30 20 1 23 24
M  V30 21 1 24 25
M  V30 22 1 24 26
M  V30 23 2 26 27
M  V30 24 1 19 23
M  V30 25 1 7 8
M  V30 26 1 2 24
M  V30 END BOND
M  V30 BEGIN SGROUP
M  V30 1 SRU 0 ATOMS=(4 7 8 12 13) CBONDS=(2 14 25) -
M  V30 BRKXYZ=(9 2.1651 -0.5320 0 2.1651 0.4681 0 0 0 0) BRKXYZ=(9 5.6291 -0.5-
M  V30 320 0 5.6291 0.4681 0 0 0 0)
M  V30 2 SRU 0 ATOMS=(4 12 13 17 18) CBONDS=(2 14 19) -
M  V30 BRKXYZ=(9 5.6291 -0.5320 0 5.6291 0.4681 0 0 0 0) BRKXYZ=(9 9.0932 -0.5-
M  V30 319 0 9.0932 0.4681 0 0 0 0)
M  V30 3 SRU 0 ATOMS=(4 17 18 19 23) CBONDS=(2 19 24) -
M  V30 BRKXYZ=(9 9.0932 0.4681 0 9.0932 -0.5319 0 0 0 0) BRKXYZ=(9 10.8253 0.4-
M  V30 681 0 10.8253 -0.5319 0 0 0 0)
M  V30 4 SRU 0 ATOMS=(4 2 19 23 24) CBONDS=(2 24 26) -
M  V30 BRKXYZ=(9 10.8253 0.4681 0 10.8253 -0.5319 0 0 0 0) BRKXYZ=(9 12.5573 0-
M  V30 .4681 0 12.5573 -0.5319 0 0 0 0)
M  V30 5 SRU 0 ATOMS=(4 2 7 8 24) CBONDS=(2 25 26) -
M  V30 BRKXYZ=(9 2.1651 -3.0319 0 2.1651 2.9680 0 0 0 0) BRKXYZ=(9 12.5573 -3.-
M  V30 0318 0 12.5573 2.9681 0 0 0 0)
M  V30 6 SRU 0 ATOMS=(4 1 3 7 8) CBONDS=(2 5 25) -
M  V30 BRKXYZ=(9 -0.4331 0.4682 0 -0.4331 -0.5320 0 0 0 0) BRKXYZ=(9 2.1651 0.-
M  V30 4682 0 2.1651 -0.5320 0 0 0 0)
M  V30 END SGROUP
M  V30 END CTAB
M  END
>  <BIGSMILES_BRACKET_RECORDS_JSON>
{
  "records": [
    {
      "id": 0,
      "bracket_kind": "backbone",
      "pairing_id": "F2/fragments[0]",
      "group_id": "$a:2",
      "ru_midpoint": [
        3.897126294151225,
        -0.03194401484650939
      ],
      "bond_midpoint": [
        2.165134620374035,
        -0.03194393484398847
      ],
      "orientation_vector": [
        0.0,
        -1.0
      ],
      "half_bracket_size": 0.5000159978427487,
      "bond": [
        6,
        7
      ],
      "fragment": "F2",
      "backbone": true,
      "suspended_anchor_atom": null,
      "suspended_reason": null,
      "source_label": "F2/fragments[0]",
      "marker_id": "0",
      "side": "left",
      "connection_group": "$a",
      "marker_type_index": 2
    },
    {
      "id": 1,
      "bracket_kind": "backbone",
      "pairing_id": "F2/fragments[0]",
      "group_id": "$a:2",
      "ru_midpoint": [
        3.897126294151225,
        -0.03194401484650939
      ],
      "bond_midpoint": [
        5.629149816250537,
        -0.03194401484650941
      ],
      "orientation_vector": [
        0.0,
        -1.0
      ],
      "half_bracket_size": 0.5000159978427487,
      "bond": [
        11,
        12
      ],
      "fragment": "F2",
      "backbone": true,
      "suspended_anchor_atom": null,
      "suspended_reason": null,
      "source_label": "F2/fragments[0]",
      "marker_id": "6",
      "side": "right",
      "connection_group": "$a",
      "marker_type_index": 2
    },
    {
      "id": 2,
      "bracket_kind": "backbone",
      "pairing_id": "F2/fragments[1]",
      "group_id": "$a:2",
      "ru_midpoint": [
        7.3611603623352355,
        -0.03188609593281628
      ],
      "bond_midpoint": [
        5.629149816250537,
        -0.03194401484650941
      ],
      "orientation_vector": [
        0.0,
        -1.0
      ],
      "half_bracket_size": 0.5000159978427487,
      "bond": [
        11,
        12
      ],
      "fragment": "F2",
      "backbone": true,
      "suspended_anchor_atom": null,
      "suspended_reason": null,
      "source_label": "F2/fragments[1]",
      "marker_id": "0",
      "side": "left",
      "connection_group": "$a",
      "marker_type_index": 2
    },
    {
      "id": 3,
      "bracket_kind": "backbone",
      "pairing_id": "F2/fragments[1]",
      "group_id": "$a:2",
      "ru_midpoint": [
        7.3611603623352355,
        -0.03188609593281628
      ],
      "bond_midpoint": [
        9.093204344182416,
        -0.03188609593281641
      ],
      "orientation_vector": [
        0.0,
        -1.0
      ],
      "half_bracket_size": 0.5000159978427487,
      "bond": [
        16,
        17
      ],
      "fragment": "F2",
      "backbone": true,
      "suspended_anchor_atom": null,
      "suspended_reason": null,
      "source_label": "F2/fragments[1]",
      "marker_id": "6",
      "side": "right",
      "connection_group": "$a",
      "marker_type_index": 2
    },
    {
      "id": 4,
      "bracket_kind": "backbone",
      "pairing_id": "F2/fragments[2]",
      "group_id": "$a:2",
      "ru_midpoint": [
        9.959263729186585,
        -0.03188609593281628
      ],
      "bond_midpoint": [
        9.093204344182416,
        -0.03188609593281641
      ],
      "orientation_vector": [
        0.0,
        1.0
      ],
      "half_bracket_size": 0.5000159978427487,
      "bond": [
        16,
        17
      ],
      "fragment": "F2",
      "backbone": true,
      "suspended_anchor_atom": null,
      "suspended_reason": null,
      "source_label": "F2/fragments[2]",
      "marker_id": "0",
      "side": "left",
      "connection_group": "$a",
      "marker_type_index": 2
    },
    {
      "id": 5,
      "bracket_kind": "backbone",
      "pairing_id": "F2/fragments[2]",
      "group_id": "$a:2",
      "ru_midpoint": [
        9.959263729186585,
        -0.03188609593281628
      ],
      "bond_midpoint": [
        10.825283589634727,
        -0.0318860959328163
      ],
      "orientation_vector": [
        0.0,
        1.0
      ],
      "half_bracket_size": 0.5000159978427487,
      "bond": [
        18,
        22
      ],
      "fragment": "F2",
      "backbone": true,
      "suspended_anchor_atom": null,
      "suspended_reason": null,
      "source_label": "F2/fragments[2]",
      "marker_id": "6",
      "side": "right",
      "connection_group": "$a",
      "marker_type_index": 2
    },
    {
      "id": 6,
      "bracket_kind": "backbone",
      "pairing_id": "F2/fragments[3]",
      "group_id": "$a:2",
      "ru_midpoint": [
        11.691314277231534,
        -0.03187809791415861
      ],
      "bond_midpoint": [
        10.825283589634727,
        -0.0318860959328163
      ],
      "orientation_vector": [
        0.0,
        1.0
      ],
      "half_bracket_size": 0.5000159978427487,
      "bond": [
        18,
        22
      ],
      "fragment": "F2",
      "backbone": true,
      "suspended_anchor_atom": null,
      "suspended_reason": null,
      "source_label": "F2/fragments[3]",
      "marker_id": "0",
      "side": "left",
      "connection_group": "$a",
      "marker_type_index": 2
    },
    {
      "id": 7,
      "bracket_kind": "backbone",
      "pairing_id": "F2/fragments[3]",
      "group_id": "$a:2",
      "ru_midpoint": [
        11.691314277231534,
        -0.03187809791415861
      ],
      "bond_midpoint": [
        12.557331647693049,
        -0.0318860959328163
      ],
      "orientation_vector": [
        0.0,
        1.0
      ],
      "half_bracket_size": 0.5000159978427487,
      "bond": [
        1,
        23
      ],
      "fragment": "F2",
      "backbone": true,
      "suspended_anchor_atom": null,
      "suspended_reason": null,
      "source_label": "F2/fragments[3]",
      "marker_id": "6",
      "side": "right",
      "connection_group": "$a",
      "marker_type_index": 2
    },
    {
      "id": 8,
      "bracket_kind": "backbone",
      "pairing_id": "F2/connected",
      "group_id": "$overall",
      "ru_midpoint": [
        7.361156387042544,
        -0.031902920305741246
      ],
      "bond_midpoint": [
        2.165134620374035,
        -0.03194393484398847
      ],
      "orientation_vector": [
        0.0,
        -1.0
      ],
      "half_bracket_size": 2.9999470747103514,
      "bond": [
        6,
        7
      ],
      "fragment": "F2",
      "backbone": true,
      "suspended_anchor_atom": null,
      "suspended_reason": null,
      "source_label": "F2/connected",
      "marker_id": "connected-overall-left",
      "side": "left",
      "connection_group": "$overall",
      "marker_type_index": null
    },
    {
      "id": 9,
      "bracket_kind": "backbone",
      "pairing_id": "F2/connected",
      "group_id": "$overall",
      "ru_midpoint": [
        7.361156387042544,
        -0.031902920305741246
      ],
      "bond_midpoint": [
        12.557331647693049,
        -0.0318860959328163
      ],
      "orientation_vector": [
        0.0,
        -1.0
      ],
      "half_bracket_size": 2.9999470747103514,
      "bond": [
        1,
        23
      ],
      "fragment": "F2",
      "backbone": true,
      "suspended_anchor_atom": null,
      "suspended_reason": null,
      "source_label": "F2/connected",
      "marker_id": "connected-overall-right",
      "side": "right",
      "connection_group": "$overall",
      "marker_type_index": null
    },
    {
      "id": 10,
      "bracket_kind": "backbone",
      "pairing_id": "F1/fragments[0]",
      "group_id": "<1:3",
      "ru_midpoint": [
        0.8659921761379565,
        0.018120192441992193
      ],
      "bond_midpoint": [
        -0.4330687674829439,
        -0.031901354030355794
      ],
      "orientation_vector": [
        0.0,
        1.0
      ],
      "half_bracket_size": 0.5001009994649716,
      "bond": [
        0,
        2
      ],
      "fragment": "F1",
      "backbone": true,
      "suspended_anchor_atom": null,
      "suspended_reason": null,
      "source_label": "F1/fragments[0]",
      "marker_id": "0",
      "side": "left",
      "connection_group": "<1",
      "marker_type_index": 3
    },
    {
      "id": 11,
      "bracket_kind": "backbone",
      "pairing_id": "F1/fragments[0]",
      "group_id": ">1:4",
      "ru_midpoint": [
        0.8659921761379565,
        0.018120192441992193
      ],
      "bond_midpoint": [
        2.165134620374035,
        -0.03194393484398847
      ],
      "orientation_vector": [
        0.0,
        1.0
      ],
      "half_bracket_size": 0.5001009994649716,
      "bond": [
        6,
        7
      ],
      "fragment": "F1",
      "backbone": true,
      "suspended_anchor_atom": null,
      "suspended_reason": null,
      "source_label": "F1/fragments[0]",
      "marker_id": "6",
      "side": "right",
      "connection_group": ">1",
      "marker_type_index": 4
    }
  ]
}
