
     RDKit          2D

  0  0  0  0  0  0  0  0  0  0999 V3000
M  V30 BEGIN CTAB
M  V30 COUNTS 27 30 2 0 0
M  V30 BEGIN ATOM
M  V30 1 H -3.464284 0.051464 0.000000 0
M  V30 2 H 3.463885 0.051385 0.000000 0
M  V30 3 C -2.598286 -0.448583 0.000000 0
M  V30 4 C -2.598327 -1.448552 0.000000 0
M  V30 5 C -1.732315 -1.948582 0.000000 0
M  V30 6 C -0.866434 -1.448543 0.000000 0
M  V30 7 C -0.866392 -0.448573 0.000000 0
M  V30 8 C -1.732232 0.051357 0.000000 0
M  V30 9 O -1.732182 1.051326 0.000000 0
M  V30 10 C -0.000338 0.051366 0.000000 0
M  V30 11 C 0.865674 -0.448664 0.000000 0
M  V30 12 C 0.865633 -1.448634 0.000000 0
M  V30 13 C 1.731645 -1.948664 0.000000 0
M  V30 14 C 1.731604 -2.948634 0.000000 0
M  V30 15 C 0.865550 -3.448573 0.000000 0
M  V30 16 C -0.000463 -2.948542 0.000000 0
M  V30 17 O -0.000500 -1.948573 0.000000 0
M  V30 18 C -0.866344 -3.448582 0.000000 0
M  V30 19 C -0.866385 -4.448552 0.000000 0
M  V30 20 C -0.000546 -4.948481 0.000000 0
M  V30 21 R -0.000595 -5.948451 0.000000 2
M  V30 22 C 0.865508 -4.448542 0.000000 0
M  V30 23 C -1.732356 -2.948552 0.000000 0
M  V30 24 C 2.597800 -1.448552 0.000000 0
M  V30 25 O 3.463826 -1.948558 0.000000 0
M  V30 26 C 2.597841 -0.448583 0.000000 0
M  V30 27 C 1.731829 0.051448 0.000000 0
M  V30 END ATOM
M  V30 BEGIN BOND
M  V30 1 2 3 4
M  V30 2 1 4 5
M  V30 3 2 5 6
M  V30 4 1 6 7
M  V30 5 2 7 8
M  V30 6 1 8 9
M  V30 7 1 7 10
M  V30 8 1 10 11
M  V30 9 2 11 12
M  V30 10 1 12 13
M  V30 11 1 13 14
M  V30 12 1 14 15
M  V30 13 2 15 16
M  V30 14 1 16 17
M  V30 15 1 16 18
M  V30 16 2 18 19
M  V30 17 1 19 20
M  V30 18 1 20 21
M  V30 19 2 20 22
M  V30 20 1 18 23
M  V30 21 2 13 24
M  V30 22 1 24 25
M  V30 23 1 24 26
M  V30 24 2 26 27
M  V30 25 1 8 3
M  V30 26 1 27 11
M  V30 27 1 23 5
M  V30 28 1 22 15
M  V30 29 1 1 3
M  V30 30 1 2 26
M  V30 END BOND
M  V30 BEGIN SGROUP
M  V30 1 SRU 0 ATOMS=(4 1 2 3 26) CBONDS=(2 29 30) -
M  V30 BRKXYZ=(9 -3.0313 4.8014 0 -3.0313 -5.1985 0 0 0 0) BRKXYZ=(9 3.0309 4.-
M  V30 8013 0 3.0309 -5.1985 0 0 0 0)
M  V30 2 SRU 0 ATOMS=(2 20 21) CBONDS=(1 18) -
M  V30 BRKXYZ=(9 0.4994 -5.4485 0 -0.5006 -5.4484 0 0 0 0)
M  V30 END SGROUP
M  V30 END CTAB
M  END
>  <BIGSMILES_BRACKET_RECORDS_JSON>
{
  "records": [
    {
      "id": 0,
      "bracket_kind": "backbone",
      "pairing_id": "F1/fragments[0]",
      "group_id": "$a:2",
      "ru_midpoint": [
        -0.0003361399555292799,
        -1.7746681561460376
      ],
      "bond_midpoint": [
        -3.031284697183324,
        -0.19855910800153398
      ],
      "orientation_vector": [
        0.0,
        1.0
      ],
      "half_bracket_size": 4.99994571692108,
      "bond": [
        0,
        2
      ],
      "fragment": "F1",
      "backbone": true,
      "suspended_anchor_atom": null,
      "suspended_reason": null,
      "source_label": "F1/fragments[0]",
      "marker_id": "0",
      "side": "left",
      "connection_group": "$a",
      "marker_type_index": 2
    },
    {
      "id": 1,
      "bracket_kind": "backbone",
      "pairing_id": "F1/fragments[0]",
      "group_id": "$a:2",
      "ru_midpoint": [
        -0.0003361399555292799,
        -1.7746681561460376
      ],
      "bond_midpoint": [
        3.0308630054870207,
        -0.19859863839794034
      ],
      "orientation_vector": [
        0.0,
        1.0
      ],
      "half_bracket_size": 4.99994571692108,
      "bond": [
        1,
        25
      ],
      "fragment": "F1",
      "backbone": true,
      "suspended_anchor_atom": null,
      "suspended_reason": null,
      "source_label": "F1/fragments[0]",
      "marker_id": "26",
      "side": "right",
      "connection_group": "$a",
      "marker_type_index": 2
    },
    {
      "id": 2,
      "bracket_kind": "pendant",
      "pairing_id": "F1/fragments[0]",
      "group_id": "$a:2",
      "ru_midpoint": [
        -0.0003361399555292799,
        -1.7746681561460376
      ],
      "bond_midpoint": [
        -0.000570314385808457,
        -5.448466085350828
      ],
      "orientation_vector": [
        0.9999999987724475,
        -4.9549017184913915e-05
      ],
      "half_bracket_size": 0.49998472976682035,
      "bond": [
        19,
        20
      ],
      "fragment": "F1",
      "backbone": false,
      "suspended_anchor_atom": null,
      "suspended_reason": null,
      "source_label": "F1/fragments[0]",
      "marker_id": "19",
      "side": "right",
      "connection_group": "$a",
      "marker_type_index": 2
    }
  ]
}
