
     RDKit          2D

  0  0  0  0  0  0  0  0  0  0999 V3000
M  V30 BEGIN CTAB
M  V30 COUNTS 21 22 2 0 0
M  V30 BEGIN ATOM
M  V30 1 C 4.566392 0.133445 0.000000 0
M  V30 2 C 5.432388 0.633545 0.000000 0
M  V30 3 C 6.298393 0.133445 0.000000 0
M  V30 4 C 6.298393 -0.866555 0.000000 0
M  V30 5 H 10.628314 0.633450 0.000000 0
M  V30 6 C 7.164414 0.633451 0.000000 0
M  V30 7 C 8.030374 0.133444 0.000000 0
M  V30 8 C 8.030374 -0.866558 0.000000 0
M  V30 9 N 7.164172 -1.366491 0.000000 0
M  V30 10 C 7.164372 -2.366493 0.000000 0
M  V30 11 C 8.030174 -2.866562 0.000000 0
M  V30 12 C 8.896375 -2.366629 0.000000 0
M  V30 13 C 8.896175 -1.366627 0.000000 0
M  V30 14 C 8.896395 0.633450 0.000000 0
M  V30 15 C 9.762355 0.133443 0.000000 0
M  V30 16 C 9.762355 -0.866559 0.000000 0
M  V30 17 C 8.896153 -1.366492 0.000000 0
M  V30 18 C 8.896353 -2.366494 0.000000 0
M  V30 19 C 9.762155 -2.866563 0.000000 0
M  V30 20 C 10.628356 -2.366630 0.000000 0
M  V30 21 C 10.628156 -1.366628 0.000000 0
M  V30 END ATOM
M  V30 BEGIN BOND
M  V30 1 1 1 2
M  V30 2 1 2 3
M  V30 3 1 3 4
M  V30 4 1 6 7
M  V30 5 1 7 8
M  V30 6 2 8 9
M  V30 7 1 9 10
M  V30 8 2 10 11
M  V30 9 1 11 12
M  V30 10 2 12 13
M  V30 11 1 13 8
M  V30 12 1 3 6
M  V30 13 1 14 15
M  V30 14 1 15 16
M  V30 15 2 16 17
M  V30 16 1 17 18
M  V30 17 2 18 19
M  V30 18 1 19 20
M  V30 19 2 20 21
M  V30 20 1 21 16
M  V30 21 1 7 14
M  V30 22 1 5 15
M  V30 END BOND
M  V30 BEGIN SGROUP
M  V30 1 SRU 0 ATOMS=(4 5 7 14 15) CBONDS=(2 21 22) -
M  V30 BRKXYZ=(9 8.4634 0.8835 0 8.4634 -0.1166 0 0 0 0) BRKXYZ=(9 10.1953 0.8-
M  V30 835 0 10.1953 -0.1166 0 0 0 0)
M  V30 2 SRU 0 ATOMS=(4 3 6 7 14) CBONDS=(2 12 21) -
M  V30 BRKXYZ=(9 6.7314 0.8835 0 6.7314 -0.1166 0 0 0 0) BRKXYZ=(9 8.4634 0.88-
M  V30 35 0 8.4634 -0.1166 0 0 0 0)
M  V30 END SGROUP
M  V30 END CTAB
M  END
>  <BIGSMILES_BRACKET_RECORDS_JSON>
{
  "records": [
    {
      "id": 0,
      "bracket_kind": "backbone",
      "pairing_id": "F2/fragments[0]",
      "group_id": "$a:2",
      "ru_midpoint": [
        9.32933090919769,
        0.38342508754707416
      ],
      "bond_midpoint": [
        8.463384530974068,
        0.383447145645091
      ],
      "orientation_vector": [
        0.0,
        1.0
      ],
      "half_bracket_size": 0.5000070589092322,
      "bond": [
        6,
        13
      ],
      "fragment": "F2",
      "backbone": true,
      "suspended_anchor_atom": null,
      "suspended_reason": null,
      "source_label": "F2/fragments[0]",
      "marker_id": "0",
      "side": "left",
      "connection_group": "$a",
      "marker_type_index": 2
    },
    {
      "id": 1,
      "bracket_kind": "backbone",
      "pairing_id": "F2/fragments[0]",
      "group_id": "$a:2",
      "ru_midpoint": [
        9.32933090919769,
        0.38342508754707416
      ],
      "bond_midpoint": [
        10.195334149534196,
        0.383446645639532
      ],
      "orientation_vector": [
        0.0,
        1.0
      ],
      "half_bracket_size": 0.5000070589092322,
      "bond": [
        4,
        14
      ],
      "fragment": "F2",
      "backbone": true,
      "suspended_anchor_atom": null,
      "suspended_reason": null,
      "source_label": "F2/fragments[0]",
      "marker_id": "9",
      "side": "right",
      "connection_group": "$a",
      "marker_type_index": 2
    },
    {
      "id": 2,
      "bracket_kind": "backbone",
      "pairing_id": "F1/fragments[0]",
      "group_id": "$a:2",
      "ru_midpoint": [
        7.59736855443383,
        0.38344764565065026
      ],
      "bond_midpoint": [
        6.731403514834169,
        0.383448145656209
      ],
      "orientation_vector": [
        0.0,
        1.0
      ],
      "half_bracket_size": 0.5000070589092322,
      "bond": [
        2,
        5
      ],
      "fragment": "F1",
      "backbone": true,
      "suspended_anchor_atom": null,
      "suspended_reason": null,
      "source_label": "F1/fragments[0]",
      "marker_id": "0",
      "side": "left",
      "connection_group": "$a",
      "marker_type_index": 2
    },
    {
      "id": 3,
      "bracket_kind": "backbone",
      "pairing_id": "F1/fragments[0]",
      "group_id": "$a:2",
      "ru_midpoint": [
        7.59736855443383,
        0.38344764565065026
      ],
      "bond_midpoint": [
        8.463384530974068,
        0.383447145645091
      ],
      "orientation_vector": [
        0.0,
        1.0
      ],
      "half_bracket_size": 0.5000070589092322,
      "bond": [
        6,
        13
      ],
      "fragment": "F1",
      "backbone": true,
      "suspended_anchor_atom": null,
      "suspended_reason": null,
      "source_label": "F1/fragments[0]",
      "marker_id": "9",
      "side": "right",
      "connection_group": "$a",
      "marker_type_index": 2
    }
  ]
}
