
     RDKit          2D

  0  0  0  0  0  0  0  0  0  0999 V3000
M  V30 BEGIN CTAB
M  V30 COUNTS 23 24 2 0 0
M  V30 BEGIN ATOM
M  V30 1 C 4.156903 -0.402558 0.000000 0
M  V30 2 C 5.022899 0.097543 0.000000 0
M  V30 3 C 5.888904 -0.402558 0.000000 0
M  V30 4 C 5.888904 -1.402558 0.000000 0
M  V30 5 H 10.218979 0.097381 0.000000 0
M  V30 6 C 6.754927 0.097446 0.000000 0
M  V30 7 C 7.620943 -0.402657 0.000000 0
M  V30 8 C 7.620943 0.597386 0.000000 0
M  V30 9 C 7.620943 -1.402683 0.000000 0
M  V30 10 C 6.754781 -1.902532 0.000000 0
M  V30 11 C 6.754781 -2.902558 0.000000 0
M  V30 12 C 7.620770 -3.402634 0.000000 0
M  V30 13 C 8.486759 -2.902684 0.000000 0
M  V30 14 C 8.486932 -1.902759 0.000000 0
M  V30 15 C 8.486937 0.097397 0.000000 0
M  V30 16 C 9.352954 -0.402619 0.000000 0
M  V30 17 C 9.352954 -1.402644 0.000000 0
M  V30 18 C 10.218933 -1.902725 0.000000 0
M  V30 19 C 10.218759 -2.902650 0.000000 0
M  V30 20 C 9.352780 -3.402593 0.000000 0
M  V30 21 O 9.352607 -4.402518 0.000000 0
M  V30 22 C 8.486801 -2.902513 0.000000 0
M  V30 23 C 8.486975 -1.902588 0.000000 0
M  V30 END ATOM
M  V30 BEGIN BOND
M  V30 1 1 1 2
M  V30 2 1 2 3
M  V30 3 1 3 4
M  V30 4 1 6 7
M  V30 5 1 7 8
M  V30 6 1 7 9
M  V30 7 2 9 10
M  V30 8 1 10 11
M  V30 9 2 11 12
M  V30 10 1 12 13
M  V30 11 2 13 14
M  V30 12 1 14 9
M  V30 13 1 3 6
M  V30 14 1 15 16
M  V30 15 1 16 17
M  V30 16 2 17 18
M  V30 17 1 18 19
M  V30 18 2 19 20
M  V30 19 1 20 21
M  V30 20 1 20 22
M  V30 21 2 22 23
M  V30 22 1 23 17
M  V30 23 1 7 15
M  V30 24 1 5 16
M  V30 END BOND
M  V30 BEGIN SGROUP
M  V30 1 SRU 0 ATOMS=(4 5 7 15 16) CBONDS=(2 23 24) -
M  V30 BRKXYZ=(9 8.0539 0.3474 0 8.0539 -0.6526 0 0 0 0) BRKXYZ=(9 9.7860 0.34-
M  V30 74 0 9.7860 -0.6526 0 0 0 0)
M  V30 2 SRU 0 ATOMS=(4 3 6 7 15) CBONDS=(2 13 23) -
M  V30 BRKXYZ=(9 6.3219 0.3475 0 6.3219 -0.6527 0 0 0 0) BRKXYZ=(9 8.0539 0.34-
M  V30 75 0 8.0539 -0.6527 0 0 0 0)
M  V30 END SGROUP
M  V30 END CTAB
M  END
>  <BIGSMILES_BRACKET_RECORDS_JSON>
{
  "records": [
    {
      "id": 0,
      "bracket_kind": "backbone",
      "pairing_id": "F2/fragments[0]",
      "group_id": "$a:2",
      "ru_midpoint": [
        8.919976325381192,
        -0.1526113674239351
      ],
      "bond_midpoint": [
        8.05393988296706,
        -0.1526301701464276
      ],
      "orientation_vector": [
        0.0,
        1.0
      ],
      "half_bracket_size": 0.5000159978427483,
      "bond": [
        6,
        14
      ],
      "fragment": "F2",
      "backbone": true,
      "suspended_anchor_atom": null,
      "suspended_reason": null,
      "source_label": "F2/fragments[0]",
      "marker_id": "0",
      "side": "left",
      "connection_group": "$a",
      "marker_type_index": 2
    },
    {
      "id": 1,
      "bracket_kind": "backbone",
      "pairing_id": "F2/fragments[0]",
      "group_id": "$a:2",
      "ru_midpoint": [
        8.919976325381192,
        -0.1526113674239351
      ],
      "bond_midpoint": [
        9.785966348994684,
        -0.15261936729590914
      ],
      "orientation_vector": [
        0.0,
        1.0
      ],
      "half_bracket_size": 0.5000159978427483,
      "bond": [
        4,
        15
      ],
      "fragment": "F2",
      "backbone": true,
      "suspended_anchor_atom": null,
      "suspended_reason": null,
      "source_label": "F2/fragments[0]",
      "marker_id": "10",
      "side": "right",
      "connection_group": "$a",
      "marker_type_index": 2
    },
    {
      "id": 2,
      "bracket_kind": "backbone",
      "pairing_id": "F1/fragments[0]",
      "group_id": "$a:2",
      "ru_midpoint": [
        7.187855930953093,
        -0.15260553113159003
      ],
      "bond_midpoint": [
        6.3219154030424285,
        -0.15255583572386677
      ],
      "orientation_vector": [
        0.0,
        1.0
      ],
      "half_bracket_size": 0.5001028813174085,
      "bond": [
        2,
        5
      ],
      "fragment": "F1",
      "backbone": true,
      "suspended_anchor_atom": null,
      "suspended_reason": null,
      "source_label": "F1/fragments[0]",
      "marker_id": "0",
      "side": "left",
      "connection_group": "$a",
      "marker_type_index": 2
    },
    {
      "id": 3,
      "bracket_kind": "backbone",
      "pairing_id": "F1/fragments[0]",
      "group_id": "$a:2",
      "ru_midpoint": [
        7.187855930953093,
        -0.15260553113159003
      ],
      "bond_midpoint": [
        8.05393988296706,
        -0.1526301701464276
      ],
      "orientation_vector": [
        0.0,
        1.0
      ],
      "half_bracket_size": 0.5001028813174085,
      "bond": [
        6,
        14
      ],
      "fragment": "F1",
      "backbone": true,
      "suspended_anchor_atom": null,
      "suspended_reason": null,
      "source_label": "F1/fragments[0]",
      "marker_id": "10",
      "side": "right",
      "connection_group": "$a",
      "marker_type_index": 2
    }
  ]
}
