
     RDKit          2D

  0  0  0  0  0  0  0  0  0  0999 V3000
M  V30 BEGIN CTAB
M  V30 COUNTS 13 12 4 0 0
M  V30 BEGIN ATOM
M  V30 1 H 1.732350 -0.206994 0.000000 0
M  V30 2 H 10.392197 -0.207010 0.000000 0
M  V30 3 C 2.598354 0.292906 0.000000 0
M  V30 4 C 3.464359 -0.206994 0.000000 0
M  V30 5 C 3.464359 -1.207019 0.000000 0
M  V30 6 C 2.598206 -1.706863 0.000000 0
M  V30 7 C 4.330442 0.292906 0.000000 0
M  V30 8 C 5.196446 -0.206994 0.000000 0
M  V30 9 C 6.062442 0.292906 0.000000 0
M  V30 10 C 6.928447 -0.206994 0.000000 0
M  V30 11 C 7.794424 0.293090 0.000000 0
M  V30 12 C 8.660420 -0.207010 0.000000 0
M  V30 13 O 9.526308 0.293090 0.000000 0
M  V30 END ATOM
M  V30 BEGIN BOND
M  V30 1 1 3 4
M  V30 2 1 4 5
M  V30 3 1 5 6
M  V30 4 1 7 8
M  V30 5 1 8 9
M  V30 6 1 9 10
M  V30 7 1 4 7
M  V30 8 1 1 3
M  V30 9 1 11 12
M  V30 10 1 12 13
M  V30 11 1 10 11
M  V30 12 1 2 13
M  V30 END BOND
M  V30 BEGIN SGROUP
M  V30 1 SRU 0 ATOMS=(4 2 10 11 13) CBONDS=(2 11 12) -
M  V30 BRKXYZ=(9 7.3614 -0.4571 0 7.3614 0.5431 0 0 0 0) BRKXYZ=(9 9.9593 -0.4-
M  V30 571 0 9.9593 0.5431 0 0 0 0)
M  V30 2 SRU 0 ATOMS=(4 1 3 4 7) CBONDS=(2 7 8) -
M  V30 BRKXYZ=(9 2.1654 0.5429 0 2.1654 -0.4569 0 0 0 0) BRKXYZ=(9 3.8974 0.54-
M  V30 29 0 3.8974 -0.4569 0 0 0 0)
M  V30 3 SRU 0 ATOMS=(4 4 7 10 11) CBONDS=(2 7 11) -
M  V30 BRKXYZ=(9 3.8974 0.5429 0 3.8974 -0.4569 0 0 0 0) BRKXYZ=(9 7.3614 0.54-
M  V30 29 0 7.3614 -0.4569 0 0 0 0)
M  V30 4 SRU 0 ATOMS=(4 1 3 10 11) CBONDS=(2 8 11) -
M  V30 BRKXYZ=(9 2.1654 2.0427 0 2.1654 -1.9568 0 0 0 0) BRKXYZ=(9 7.3614 2.04-
M  V30 28 0 7.3614 -1.9567 0 0 0 0)
M  V30 END SGROUP
M  V30 END CTAB
M  END
>  <BIGSMILES_BRACKET_RECORDS_JSON>
{
  "records": [
    {
      "id": 0,
      "bracket_kind": "backbone",
      "pairing_id": "F2/fragments[0]",
      "group_id": "<1:3",
      "ru_midpoint": [
        8.660323480556986,
        -0.0069513182770097395
      ],
      "bond_midpoint": [
        7.36143514030543,
        0.04304789304915091
      ],
      "orientation_vector": [
        0.0,
        -1.0
      ],
      "half_bracket_size": 0.5001001599500253,
      "bond": [
        9,
        10
      ],
      "fragment": "F2",
      "backbone": true,
      "suspended_anchor_atom": null,
      "suspended_reason": null,
      "source_label": "F2/fragments[0]",
      "marker_id": "0",
      "side": "left",
      "connection_group": "<1",
      "marker_type_index": 3
    },
    {
      "id": 1,
      "bracket_kind": "backbone",
      "pairing_id": "F2/fragments[0]",
      "group_id": ">1:4",
      "ru_midpoint": [
        8.660323480556986,
        -0.0069513182770097395
      ],
      "bond_midpoint": [
        9.95925290816955,
        0.043039891830648214
      ],
      "orientation_vector": [
        0.0,
        -1.0
      ],
      "half_bracket_size": 0.5001001599500253,
      "bond": [
        1,
        12
      ],
      "fragment": "F2",
      "backbone": true,
      "suspended_anchor_atom": null,
      "suspended_reason": null,
      "source_label": "F2/fragments[0]",
      "marker_id": "4",
      "side": "right",
      "connection_group": ">1",
      "marker_type_index": 4
    },
    {
      "id": 2,
      "bracket_kind": "backbone",
      "pairing_id": "F1/fragments[0]",
      "group_id": "$a:2",
      "ru_midpoint": [
        3.031406881369146,
        0.04297469266682085
      ],
      "bond_midpoint": [
        2.1653522329449144,
        0.04295589430032176
      ],
      "orientation_vector": [
        0.0,
        1.0
      ],
      "half_bracket_size": 0.49990016001536275,
      "bond": [
        0,
        2
      ],
      "fragment": "F1",
      "backbone": true,
      "suspended_anchor_atom": null,
      "suspended_reason": null,
      "source_label": "F1/fragments[0]",
      "marker_id": "0",
      "side": "left",
      "connection_group": "$a",
      "marker_type_index": 2
    },
    {
      "id": 3,
      "bracket_kind": "backbone",
      "pairing_id": "F1/fragments[0]",
      "group_id": "$a:2",
      "ru_midpoint": [
        3.031406881369146,
        0.04297469266682085
      ],
      "bond_midpoint": [
        3.897400291003235,
        0.04295589430032176
      ],
      "orientation_vector": [
        0.0,
        1.0
      ],
      "half_bracket_size": 0.49990016001536275,
      "bond": [
        3,
        6
      ],
      "fragment": "F1",
      "backbone": true,
      "suspended_anchor_atom": null,
      "suspended_reason": null,
      "source_label": "F1/fragments[0]",
      "marker_id": "5",
      "side": "right",
      "connection_group": "$a",
      "marker_type_index": 2
    },
    {
      "id": 4,
      "bracket_kind": "backbone",
      "pairing_id": "F1/fragments[1]",
      "group_id": "$a:2",
      "ru_midpoint": [
        5.629444272850416,
        0.042955894300321866
      ],
      "bond_midpoint": [
        3.897400291003235,
        0.04295589430032176
      ],
      "orientation_vector": [
        0.0,
        1.0
      ],
      "half_bracket_size": 0.49990016001536275,
      "bond": [
        3,
        6
      ],
      "fragment": "F1",
      "backbone": true,
      "suspended_anchor_atom": null,
      "suspended_reason": null,
      "source_label": "F1/fragments[1]",
      "marker_id": "0",
      "side": "left",
      "connection_group": "$a",
      "marker_type_index": 2
    },
    {
      "id": 5,
      "bracket_kind": "backbone",
      "pairing_id": "F1/fragments[1]",
      "group_id": "$a:2",
      "ru_midpoint": [
        5.629444272850416,
        0.042955894300321866
      ],
      "bond_midpoint": [
        7.36143514030543,
        0.04304789304915091
      ],
      "orientation_vector": [
        0.0,
        1.0
      ],
      "half_bracket_size": 0.49990016001536275,
      "bond": [
        9,
        10
      ],
      "fragment": "F1",
      "backbone": true,
      "suspended_anchor_atom": null,
      "suspended_reason": null,
      "source_label": "F1/fragments[1]",
      "marker_id": "5",
      "side": "right",
      "connection_group": "$a",
      "marker_type_index": 2
    },
    {
      "id": 6,
      "bracket_kind": "backbone",
      "pairing_id": "F1/connected",
      "group_id": "$overall",
      "ru_midpoint": [
        4.763439916839598,
        0.04297469266682107
      ],
      "bond_midpoint": [
        2.1653522329449144,
        0.04295589430032176
      ],
      "orientation_vector": [
        0.0,
        1.0
      ],
      "half_bracket_size": 1.9997688137103982,
      "bond": [
        0,
        2
      ],
      "fragment": "F1",
      "backbone": true,
      "suspended_anchor_atom": null,
      "suspended_reason": null,
      "source_label": "F1/connected",
      "marker_id": "connected-overall-left",
      "side": "left",
      "connection_group": "$overall",
      "marker_type_index": null
    },
    {
      "id": 7,
      "bracket_kind": "backbone",
      "pairing_id": "F1/connected",
      "group_id": "$overall",
      "ru_midpoint": [
        4.763439916839598,
        0.04297469266682107
      ],
      "bond_midpoint": [
        7.36143514030543,
        0.04304789304915091
      ],
      "orientation_vector": [
        0.0,
        1.0
      ],
      "half_bracket_size": 1.9997688137103982,
      "bond": [
        9,
        10
      ],
      "fragment": "F1",
      "backbone": true,
      "suspended_anchor_atom": null,
      "suspended_reason": null,
      "source_label": "F1/connected",
      "marker_id": "connected-overall-right",
      "side": "right",
      "connection_group": "$overall",
      "marker_type_index": null
    }
  ]
}
