
     RDKit          2D

  0  0  0  0  0  0  0  0  0  0999 V3000
M  V30 BEGIN CTAB
M  V30 COUNTS 28 27 7 0 0
M  V30 BEGIN ATOM
M  V30 1 H -7.967780 -0.396414 0.000000 0
M  V30 2 C 5.022698 0.103545 0.000000 0
M  V30 3 C 5.022698 1.103545 0.000000 0
M  V30 4 C 5.888703 -0.396555 0.000000 0
M  V30 5 C 6.754699 0.103545 0.000000 0
M  V30 6 C -7.101719 0.103523 0.000000 0
M  V30 7 C -6.235715 -0.396377 0.000000 0
M  V30 8 C -5.369718 0.103523 0.000000 0
M  V30 9 C -4.503714 -0.396377 0.000000 0
M  V30 10 C -3.637631 0.103523 0.000000 0
M  V30 11 C -2.771627 -0.396377 0.000000 0
M  V30 12 C -2.771627 -1.396401 0.000000 0
M  V30 13 C -3.637779 -1.896245 0.000000 0
M  V30 14 C -1.905565 0.103561 0.000000 0
M  V30 15 C -1.039561 -0.396339 0.000000 0
M  V30 16 C -0.173565 0.103561 0.000000 0
M  V30 17 C -0.173565 1.103561 0.000000 0
M  V30 18 C 0.692440 -0.396339 0.000000 0
M  V30 19 C 1.558523 0.103561 0.000000 0
M  V30 20 C 2.424519 -0.396339 0.000000 0
M  V30 21 C 2.424519 -1.396271 0.000000 0
M  V30 22 C 1.558632 -1.896361 0.000000 0
M  V30 23 C 3.290578 -1.896213 0.000000 0
M  V30 24 C 3.290602 0.103561 0.000000 0
M  V30 25 C 4.156606 -0.396339 0.000000 0
M  V30 26 C 4.156606 0.603586 0.000000 0
M  V30 27 C 4.156606 -1.396264 0.000000 0
M  V30 28 C 3.290714 -1.896358 0.000000 0
M  V30 END ATOM
M  V30 BEGIN BOND
M  V30 1 1 2 3
M  V30 2 1 2 4
M  V30 3 1 4 5
M  V30 4 1 6 7
M  V30 5 1 7 8
M  V30 6 1 8 9
M  V30 7 1 10 11
M  V30 8 1 11 12
M  V30 9 1 12 13
M  V30 10 1 9 10
M  V30 11 1 1 6
M  V30 12 1 14 15
M  V30 13 1 15 16
M  V30 14 1 16 17
M  V30 15 1 16 18
M  V30 16 1 19 20
M  V30 17 1 20 21
M  V30 18 1 21 22
M  V30 19 1 21 23
M  V30 20 1 18 19
M  V30 21 1 24 25
M  V30 22 1 25 26
M  V30 23 1 25 27
M  V30 24 1 27 28
M  V30 25 1 20 24
M  V30 26 1 11 14
M  V30 27 1 2 25
M  V30 END BOND
M  V30 BEGIN SGROUP
M  V30 1 SRU 0 ATOMS=(4 11 14 18 19) CBONDS=(2 20 26) -
M  V30 BRKXYZ=(9 -2.3386 -0.6463 0 -2.3386 0.3535 0 0 0 0) BRKXYZ=(9 1.1255 -0-
M  V30 .6463 0 1.1255 0.3535 0 0 0 0)
M  V30 2 SRU 0 ATOMS=(4 18 19 20 24) CBONDS=(2 20 25) -
M  V30 BRKXYZ=(9 1.1255 0.3535 0 1.1255 -0.6463 0 0 0 0) BRKXYZ=(9 2.8576 0.35-
M  V30 35 0 2.8576 -0.6463 0 0 0 0)
M  V30 3 SRU 0 ATOMS=(4 2 20 24 25) CBONDS=(2 25 27) -
M  V30 BRKXYZ=(9 2.8576 0.3535 0 2.8576 -0.6463 0 0 0 0) BRKXYZ=(9 4.5897 0.35-
M  V30 35 0 4.5897 -0.6463 0 0 0 0)
M  V30 4 SRU 0 ATOMS=(4 2 11 14 25) CBONDS=(2 26 27) -
M  V30 BRKXYZ=(9 -2.3386 -3.1463 0 -2.3386 2.8535 0 0 0 0) BRKXYZ=(9 4.5897 -3-
M  V30 .1463 0 4.5897 2.8535 0 0 0 0)
M  V30 5 SRU 0 ATOMS=(4 1 6 9 10) CBONDS=(2 10 11) -
M  V30 BRKXYZ=(9 -7.5347 0.3535 0 -7.5347 -0.6463 0 0 0 0) BRKXYZ=(9 -4.0707 0-
M  V30 .3535 0 -4.0707 -0.6463 0 0 0 0)
M  V30 6 SRU 0 ATOMS=(4 9 10 11 14) CBONDS=(2 10 26) -
M  V30 BRKXYZ=(9 -4.0707 0.3535 0 -4.0707 -0.6463 0 0 0 0) BRKXYZ=(9 -2.3386 0-
M  V30 .3535 0 -2.3386 -0.6463 0 0 0 0)
M  V30 7 SRU 0 ATOMS=(4 1 6 11 14) CBONDS=(2 11 26) -
M  V30 BRKXYZ=(9 -7.5347 1.8533 0 -7.5347 -2.1462 0 0 0 0) BRKXYZ=(9 -2.3386 1-
M  V30 .8534 0 -2.3386 -2.1462 0 0 0 0)
M  V30 END SGROUP
M  V30 END CTAB
M  END
>  <BIGSMILES_BRACKET_RECORDS_JSON>
{
  "records": [
    {
      "id": 0,
      "bracket_kind": "backbone",
      "pairing_id": "F2/fragments[0]",
      "group_id": "$a:2",
      "ru_midpoint": [
        -0.6065629086931777,
        -0.1463891064146725
      ],
      "bond_midpoint": [
        -2.3385960396437113,
        -0.1464079047811714
      ],
      "orientation_vector": [
        0.0,
        -1.0
      ],
      "half_bracket_size": 0.4999001600153621,
      "bond": [
        10,
        13
      ],
      "fragment": "F2",
      "backbone": true,
      "suspended_anchor_atom": null,
      "suspended_reason": null,
      "source_label": "F2/fragments[0]",
      "marker_id": "0",
      "side": "left",
      "connection_group": "$a",
      "marker_type_index": 2
    },
    {
      "id": 1,
      "bracket_kind": "backbone",
      "pairing_id": "F2/fragments[0]",
      "group_id": "$a:2",
      "ru_midpoint": [
        -0.6065629086931777,
        -0.1463891064146725
      ],
      "bond_midpoint": [
        1.1254810731540024,
        -0.14638910641467257
      ],
      "orientation_vector": [
        0.0,
        -1.0
      ],
      "half_bracket_size": 0.4999001600153621,
      "bond": [
        17,
        18
      ],
      "fragment": "F2",
      "backbone": true,
      "suspended_anchor_atom": null,
      "suspended_reason": null,
      "source_label": "F2/fragments[0]",
      "marker_id": "6",
      "side": "right",
      "connection_group": "$a",
      "marker_type_index": 2
    },
    {
      "id": 2,
      "bracket_kind": "backbone",
      "pairing_id": "F2/fragments[1]",
      "group_id": "$a:2",
      "ru_midpoint": [
        1.991540458158171,
        -0.14638910641467248
      ],
      "bond_midpoint": [
        1.1254810731540024,
        -0.14638910641467257
      ],
      "orientation_vector": [
        0.0,
        1.0
      ],
      "half_bracket_size": 0.4999001600153621,
      "bond": [
        17,
        18
      ],
      "fragment": "F2",
      "backbone": true,
      "suspended_anchor_atom": null,
      "suspended_reason": null,
      "source_label": "F2/fragments[1]",
      "marker_id": "0",
      "side": "left",
      "connection_group": "$a",
      "marker_type_index": 2
    },
    {
      "id": 3,
      "bracket_kind": "backbone",
      "pairing_id": "F2/fragments[1]",
      "group_id": "$a:2",
      "ru_midpoint": [
        1.991540458158171,
        -0.14638910641467248
      ],
      "bond_midpoint": [
        2.857560318606316,
        -0.14638910641467245
      ],
      "orientation_vector": [
        0.0,
        1.0
      ],
      "half_bracket_size": 0.4999001600153621,
      "bond": [
        19,
        23
      ],
      "fragment": "F2",
      "backbone": true,
      "suspended_anchor_atom": null,
      "suspended_reason": null,
      "source_label": "F2/fragments[1]",
      "marker_id": "6",
      "side": "right",
      "connection_group": "$a",
      "marker_type_index": 2
    },
    {
      "id": 4,
      "bracket_kind": "backbone",
      "pairing_id": "F2/fragments[2]",
      "group_id": "$a:2",
      "ru_midpoint": [
        3.7236349623498723,
        -0.1463891064146725
      ],
      "bond_midpoint": [
        2.857560318606316,
        -0.14638910641467245
      ],
      "orientation_vector": [
        0.0,
        1.0
      ],
      "half_bracket_size": 0.4999001600153621,
      "bond": [
        19,
        23
      ],
      "fragment": "F2",
      "backbone": true,
      "suspended_anchor_atom": null,
      "suspended_reason": null,
      "source_label": "F2/fragments[2]",
      "marker_id": "0",
      "side": "left",
      "connection_group": "$a",
      "marker_type_index": 2
    },
    {
      "id": 5,
      "bracket_kind": "backbone",
      "pairing_id": "F2/fragments[2]",
      "group_id": "$a:2",
      "ru_midpoint": [
        3.7236349623498723,
        -0.1463891064146725
      ],
      "bond_midpoint": [
        4.5896523328113865,
        -0.14639710443332962
      ],
      "orientation_vector": [
        0.0,
        1.0
      ],
      "half_bracket_size": 0.4999001600153621,
      "bond": [
        1,
        24
      ],
      "fragment": "F2",
      "backbone": true,
      "suspended_anchor_atom": null,
      "suspended_reason": null,
      "source_label": "F2/fragments[2]",
      "marker_id": "6",
      "side": "right",
      "connection_group": "$a",
      "marker_type_index": 2
    },
    {
      "id": 6,
      "bracket_kind": "backbone",
      "pairing_id": "F2/connected",
      "group_id": "$overall",
      "ru_midpoint": [
        1.1255162397240417,
        -0.14638910641467248
      ],
      "bond_midpoint": [
        -2.3385960396437113,
        -0.1464079047811714
      ],
      "orientation_vector": [
        0.0,
        -1.0
      ],
      "half_bracket_size": 2.9999227350143496,
      "bond": [
        10,
        13
      ],
      "fragment": "F2",
      "backbone": true,
      "suspended_anchor_atom": null,
      "suspended_reason": null,
      "source_label": "F2/connected",
      "marker_id": "connected-overall-left",
      "side": "left",
      "connection_group": "$overall",
      "marker_type_index": null
    },
    {
      "id": 7,
      "bracket_kind": "backbone",
      "pairing_id": "F2/connected",
      "group_id": "$overall",
      "ru_midpoint": [
        1.1255162397240417,
        -0.14638910641467248
      ],
      "bond_midpoint": [
        4.5896523328113865,
        -0.14639710443332962
      ],
      "orientation_vector": [
        0.0,
        -1.0
      ],
      "half_bracket_size": 2.9999227350143496,
      "bond": [
        1,
        24
      ],
      "fragment": "F2",
      "backbone": true,
      "suspended_anchor_atom": null,
      "suspended_reason": null,
      "source_label": "F2/connected",
      "marker_id": "connected-overall-right",
      "side": "right",
      "connection_group": "$overall",
      "marker_type_index": null
    },
    {
      "id": 8,
      "bracket_kind": "backbone",
      "pairing_id": "F1/fragments[0]",
      "group_id": "$a:2",
      "ru_midpoint": [
        -5.802716568468838,
        -0.14642670314767064
      ],
      "bond_midpoint": [
        -7.534749699419372,
        -0.14644550151416996
      ],
      "orientation_vector": [
        0.0,
        1.0
      ],
      "half_bracket_size": 0.49990016001536275,
      "bond": [
        0,
        5
      ],
      "fragment": "F1",
      "backbone": true,
      "suspended_anchor_atom": null,
      "suspended_reason": null,
      "source_label": "F1/fragments[0]",
      "marker_id": "0",
      "side": "left",
      "connection_group": "$a",
      "marker_type_index": 2
    },
    {
      "id": 9,
      "bracket_kind": "backbone",
      "pairing_id": "F1/fragments[0]",
      "group_id": "$a:2",
      "ru_midpoint": [
        -5.802716568468838,
        -0.14642670314767064
      ],
      "bond_midpoint": [
        -4.070672586621658,
        -0.14642670314767048
      ],
      "orientation_vector": [
        0.0,
        1.0
      ],
      "half_bracket_size": 0.49990016001536275,
      "bond": [
        8,
        9
      ],
      "fragment": "F1",
      "backbone": true,
      "suspended_anchor_atom": null,
      "suspended_reason": null,
      "source_label": "F1/fragments[0]",
      "marker_id": "5",
      "side": "right",
      "connection_group": "$a",
      "marker_type_index": 2
    },
    {
      "id": 10,
      "bracket_kind": "backbone",
      "pairing_id": "F1/fragments[1]",
      "group_id": "$a:2",
      "ru_midpoint": [
        -3.2046070873007784,
        -0.14642670314767064
      ],
      "bond_midpoint": [
        -4.070672586621658,
        -0.14642670314767048
      ],
      "orientation_vector": [
        0.0,
        1.0
      ],
      "half_bracket_size": 0.49990016001536275,
      "bond": [
        8,
        9
      ],
      "fragment": "F1",
      "backbone": true,
      "suspended_anchor_atom": null,
      "suspended_reason": null,
      "source_label": "F1/fragments[1]",
      "marker_id": "0",
      "side": "left",
      "connection_group": "$a",
      "marker_type_index": 2
    },
    {
      "id": 11,
      "bracket_kind": "backbone",
      "pairing_id": "F1/fragments[1]",
      "group_id": "$a:2",
      "ru_midpoint": [
        -3.2046070873007784,
        -0.14642670314767064
      ],
      "bond_midpoint": [
        -2.3385960396437113,
        -0.1464079047811714
      ],
      "orientation_vector": [
        0.0,
        1.0
      ],
      "half_bracket_size": 0.49990016001536275,
      "bond": [
        10,
        13
      ],
      "fragment": "F1",
      "backbone": true,
      "suspended_anchor_atom": null,
      "suspended_reason": null,
      "source_label": "F1/fragments[1]",
      "marker_id": "5",
      "side": "right",
      "connection_group": "$a",
      "marker_type_index": 2
    },
    {
      "id": 12,
      "bracket_kind": "backbone",
      "pairing_id": "F1/connected",
      "group_id": "$overall",
      "ru_midpoint": [
        -4.936672823346603,
        -0.14642670314767064
      ],
      "bond_midpoint": [
        -7.534749699419372,
        -0.14644550151416996
      ],
      "orientation_vector": [
        0.0,
        1.0
      ],
      "half_bracket_size": 1.9997688137103973,
      "bond": [
        0,
        5
      ],
      "fragment": "F1",
      "backbone": true,
      "suspended_anchor_atom": null,
      "suspended_reason": null,
      "source_label": "F1/connected",
      "marker_id": "connected-overall-left",
      "side": "left",
      "connection_group": "$overall",
      "marker_type_index": null
    },
    {
      "id": 13,
      "bracket_kind": "backbone",
      "pairing_id": "F1/connected",
      "group_id": "$overall",
      "ru_midpoint": [
        -4.936672823346603,
        -0.14642670314767064
      ],
      "bond_midpoint": [
        -2.3385960396437113,
        -0.1464079047811714
      ],
      "orientation_vector": [
        0.0,
        1.0
      ],
      "half_bracket_size": 1.9997688137103973,
      "bond": [
        10,
        13
      ],
      "fragment": "F1",
      "backbone": true,
      "suspended_anchor_atom": null,
      "suspended_reason": null,
      "source_label": "F1/connected",
      "marker_id": "connected-overall-right",
      "side": "right",
      "connection_group": "$overall",
      "marker_type_index": null
    }
  ]
}
