
     RDKit          2D

  0  0  0  0  0  0  0  0  0  0999 V3000
M  V30 BEGIN CTAB
M  V30 COUNTS 21 21 4 0 0
M  V30 BEGIN ATOM
M  V30 1 C 2.424835 -0.402640 0.000000 0
M  V30 2 C 3.290831 0.097460 0.000000 0
M  V30 3 C 4.156836 -0.402640 0.000000 0
M  V30 4 C 4.156836 -1.402641 0.000000 0
M  V30 5 H 11.951032 0.097334 0.000000 0
M  V30 6 C 5.022857 0.097366 0.000000 0
M  V30 7 C 5.888817 -0.402641 0.000000 0
M  V30 8 C 5.888817 -1.402643 0.000000 0
M  V30 9 C 5.022615 -1.902577 0.000000 0
M  V30 10 C 5.022815 -2.902578 0.000000 0
M  V30 11 C 5.888617 -3.402648 0.000000 0
M  V30 12 C 6.754818 -2.902714 0.000000 0
M  V30 13 C 6.754618 -1.902713 0.000000 0
M  V30 14 C 6.754878 0.097297 0.000000 0
M  V30 15 C 7.620882 -0.402604 0.000000 0
M  V30 16 C 7.620882 -1.402628 0.000000 0
M  V30 17 C 6.754730 -1.902472 0.000000 0
M  V30 18 C 8.486965 0.097297 0.000000 0
M  V30 19 C 9.352970 -0.402604 0.000000 0
M  V30 20 C 10.218966 0.097297 0.000000 0
M  V30 21 C 11.084970 -0.402604 0.000000 0
M  V30 END ATOM
M  V30 BEGIN BOND
M  V30 1 1 1 2
M  V30 2 1 2 3
M  V30 3 1 3 4
M  V30 4 1 6 7
M  V30 5 1 7 8
M  V30 6 1 8 9
M  V30 7 1 9 10
M  V30 8 1 10 11
M  V30 9 1 11 12
M  V30 10 1 12 13
M  V30 11 1 13 8
M  V30 12 1 3 6
M  V30 13 1 14 15
M  V30 14 1 15 16
M  V30 15 1 16 17
M  V30 16 1 18 19
M  V30 17 1 19 20
M  V30 18 1 20 21
M  V30 19 1 15 18
M  V30 20 1 7 14
M  V30 21 1 5 21
M  V30 END BOND
M  V30 BEGIN SGROUP
M  V30 1 SRU 0 ATOMS=(4 7 14 15 18) CBONDS=(2 19 20) -
M  V30 BRKXYZ=(9 6.3218 0.3472 0 6.3218 -0.6526 0 0 0 0) BRKXYZ=(9 8.0539 0.34-
M  V30 72 0 8.0539 -0.6526 0 0 0 0)
M  V30 2 SRU 0 ATOMS=(4 5 15 18 21) CBONDS=(2 19 21) -
M  V30 BRKXYZ=(9 8.0539 0.3472 0 8.0539 -0.6526 0 0 0 0) BRKXYZ=(9 11.5180 0.3-
M  V30 473 0 11.5180 -0.6525 0 0 0 0)
M  V30 3 SRU 0 ATOMS=(4 5 7 14 21) CBONDS=(2 20 21) -
M  V30 BRKXYZ=(9 6.3218 1.8471 0 6.3218 -2.1524 0 0 0 0) BRKXYZ=(9 11.5180 1.8-
M  V30 471 0 11.5180 -2.1524 0 0 0 0)
M  V30 4 SRU 0 ATOMS=(4 3 6 7 14) CBONDS=(2 12 20) -
M  V30 BRKXYZ=(9 4.5898 0.3474 0 4.5898 -0.6526 0 0 0 0) BRKXYZ=(9 6.3218 0.34-
M  V30 73 0 6.3218 -0.6527 0 0 0 0)
M  V30 END SGROUP
M  V30 END CTAB
M  END
>  <BIGSMILES_BRACKET_RECORDS_JSON>
{
  "records": [
    {
      "id": 0,
      "bracket_kind": "backbone",
      "pairing_id": "F2/fragments[0]",
      "group_id": "$a:2",
      "ru_midpoint": [
        7.187901920639842,
        -0.15265351431049276
      ],
      "bond_midpoint": [
        6.32184727221561,
        -0.15267231267699186
      ],
      "orientation_vector": [
        0.0,
        1.0
      ],
      "half_bracket_size": 0.49990016001536275,
      "bond": [
        6,
        13
      ],
      "fragment": "F2",
      "backbone": true,
      "suspended_anchor_atom": null,
      "suspended_reason": null,
      "source_label": "F2/fragments[0]",
      "marker_id": "0",
      "side": "left",
      "connection_group": "$a",
      "marker_type_index": 2
    },
    {
      "id": 1,
      "bracket_kind": "backbone",
      "pairing_id": "F2/fragments[0]",
      "group_id": "$a:2",
      "ru_midpoint": [
        7.187901920639842,
        -0.15265351431049276
      ],
      "bond_midpoint": [
        8.053923819193557,
        -0.15265351431049268
      ],
      "orientation_vector": [
        0.0,
        1.0
      ],
      "half_bracket_size": 0.49990016001536275,
      "bond": [
        14,
        17
      ],
      "fragment": "F2",
      "backbone": true,
      "suspended_anchor_atom": null,
      "suspended_reason": null,
      "source_label": "F2/fragments[0]",
      "marker_id": "5",
      "side": "right",
      "connection_group": "$a",
      "marker_type_index": 2
    },
    {
      "id": 2,
      "bracket_kind": "backbone",
      "pairing_id": "F2/fragments[1]",
      "group_id": "$a:2",
      "ru_midpoint": [
        9.785967801040737,
        -0.1526535143104925
      ],
      "bond_midpoint": [
        8.053923819193557,
        -0.15265351431049268
      ],
      "orientation_vector": [
        0.0,
        1.0
      ],
      "half_bracket_size": 0.49990016001536275,
      "bond": [
        14,
        17
      ],
      "fragment": "F2",
      "backbone": true,
      "suspended_anchor_atom": null,
      "suspended_reason": null,
      "source_label": "F2/fragments[1]",
      "marker_id": "0",
      "side": "left",
      "connection_group": "$a",
      "marker_type_index": 2
    },
    {
      "id": 3,
      "bracket_kind": "backbone",
      "pairing_id": "F2/fragments[1]",
      "group_id": "$a:2",
      "ru_midpoint": [
        9.785967801040737,
        -0.1526535143104925
      ],
      "bond_midpoint": [
        11.51800093199127,
        -0.15263471594399308
      ],
      "orientation_vector": [
        0.0,
        1.0
      ],
      "half_bracket_size": 0.49990016001536275,
      "bond": [
        4,
        20
      ],
      "fragment": "F2",
      "backbone": true,
      "suspended_anchor_atom": null,
      "suspended_reason": null,
      "source_label": "F2/fragments[1]",
      "marker_id": "5",
      "side": "right",
      "connection_group": "$a",
      "marker_type_index": 2
    },
    {
      "id": 4,
      "bracket_kind": "backbone",
      "pairing_id": "F2/connected",
      "group_id": "$overall",
      "ru_midpoint": [
        8.919934956110293,
        -0.1526535143104925
      ],
      "bond_midpoint": [
        6.32184727221561,
        -0.15267231267699186
      ],
      "orientation_vector": [
        0.0,
        1.0
      ],
      "half_bracket_size": 1.9997688137103982,
      "bond": [
        6,
        13
      ],
      "fragment": "F2",
      "backbone": true,
      "suspended_anchor_atom": null,
      "suspended_reason": null,
      "source_label": "F2/connected",
      "marker_id": "connected-overall-left",
      "side": "left",
      "connection_group": "$overall",
      "marker_type_index": null
    },
    {
      "id": 5,
      "bracket_kind": "backbone",
      "pairing_id": "F2/connected",
      "group_id": "$overall",
      "ru_midpoint": [
        8.919934956110293,
        -0.1526535143104925
      ],
      "bond_midpoint": [
        11.51800093199127,
        -0.15263471594399308
      ],
      "orientation_vector": [
        0.0,
        1.0
      ],
      "half_bracket_size": 1.9997688137103982,
      "bond": [
        4,
        20
      ],
      "fragment": "F2",
      "backbone": true,
      "suspended_anchor_atom": null,
      "suspended_reason": null,
      "source_label": "F2/connected",
      "marker_id": "connected-overall-right",
      "side": "right",
      "connection_group": "$overall",
      "marker_type_index": null
    },
    {
      "id": 6,
      "bracket_kind": "backbone",
      "pairing_id": "F1/fragments[0]",
      "group_id": "$a:2",
      "ru_midpoint": [
        5.455811580020096,
        -0.15263766159655584
      ],
      "bond_midpoint": [
        4.589846540420435,
        -0.1526371615909971
      ],
      "orientation_vector": [
        0.0,
        1.0
      ],
      "half_bracket_size": 0.5000070589092322,
      "bond": [
        2,
        5
      ],
      "fragment": "F1",
      "backbone": true,
      "suspended_anchor_atom": null,
      "suspended_reason": null,
      "source_label": "F1/fragments[0]",
      "marker_id": "0",
      "side": "left",
      "connection_group": "$a",
      "marker_type_index": 2
    },
    {
      "id": 7,
      "bracket_kind": "backbone",
      "pairing_id": "F1/fragments[0]",
      "group_id": "$a:2",
      "ru_midpoint": [
        5.455811580020096,
        -0.15263766159655584
      ],
      "bond_midpoint": [
        6.32184727221561,
        -0.15267231267699186
      ],
      "orientation_vector": [
        0.0,
        1.0
      ],
      "half_bracket_size": 0.5000070589092322,
      "bond": [
        6,
        13
      ],
      "fragment": "F1",
      "backbone": true,
      "suspended_anchor_atom": null,
      "suspended_reason": null,
      "source_label": "F1/fragments[0]",
      "marker_id": "9",
      "side": "right",
      "connection_group": "$a",
      "marker_type_index": 2
    }
  ]
}
