
     RDKit          2D

  0  0  0  0  0  0  0  0  0  0999 V3000
M  V30 BEGIN CTAB
M  V30 COUNTS 16 15 4 0 0
M  V30 BEGIN ATOM
M  V30 1 H -2.165597 -0.448651 0.000000 0
M  V30 2 H 2.164925 0.051451 0.000000 0
M  V30 3 C -1.299377 0.051451 0.000000 0
M  V30 4 C -0.433157 -0.448651 0.000000 0
M  V30 5 C -0.433157 -1.448665 0.000000 0
M  V30 6 O 0.432835 -1.948728 0.000000 0
M  V30 7 O -1.299321 -1.948516 0.000000 0
M  V30 8 C 0.432810 0.051451 0.000000 0
M  V30 9 C 1.298867 -0.448522 0.000000 0
M  V30 10 C 1.298867 -1.448522 0.000000 0
M  V30 11 O 0.332924 -1.707399 0.000000 0
M  V30 12 O 1.798968 -2.314519 0.000000 0
M  V30 13 C 1.799021 -5.778326 0.000000 0
M  V30 14 C 1.298883 -3.180495 0.000000 0
M  V30 15 C 1.798984 -4.046491 0.000000 0
M  V30 16 O 1.298883 -4.912380 0.000000 0
M  V30 END ATOM
M  V30 BEGIN BOND
M  V30 1 1 3 4
M  V30 2 1 4 5
M  V30 3 2 5 6
M  V30 4 1 5 7
M  V30 5 1 8 9
M  V30 6 2 10 11
M  V30 7 1 10 12
M  V30 8 1 14 15
M  V30 9 1 15 16
M  V30 10 1 12 14
M  V30 11 1 13 16
M  V30 12 1 9 10
M  V30 13 1 4 8
M  V30 14 1 1 3
M  V30 15 1 2 9
M  V30 END BOND
M  V30 BEGIN SGROUP
M  V30 1 SRU 0 ATOMS=(4 12 13 14 16) CBONDS=(2 10 11) -
M  V30 BRKXYZ=(9 2.0490 -2.7475 0 1.0488 -2.7475 0 0 0 0) BRKXYZ=(9 2.0491 -5.-
M  V30 3454 0 1.0489 -5.3454 0 0 0 0)
M  V30 2 SRU 0 ATOMS=(4 2 4 8 9) CBONDS=(2 13 15) -
M  V30 BRKXYZ=(9 -0.0002 0.3014 0 -0.0002 -0.6986 0 0 0 0) BRKXYZ=(9 1.7319 0.-
M  V30 3014 0 1.7319 -0.6985 0 0 0 0)
M  V30 3 SRU 0 ATOMS=(4 1 3 4 8) CBONDS=(2 13 14) -
M  V30 BRKXYZ=(9 -1.7325 0.3015 0 -1.7325 -0.6987 0 0 0 0) BRKXYZ=(9 -0.0002 0-
M  V30 .3015 0 -0.0002 -0.6987 0 0 0 0)
M  V30 4 SRU 0 ATOMS=(4 1 2 3 9) CBONDS=(2 14 15) -
M  V30 BRKXYZ=(9 -1.7325 5.6312 0 -1.7325 -6.0284 0 0 0 0) BRKXYZ=(9 1.7319 5.-
M  V30 6312 0 1.7319 -6.0283 0 0 0 0)
M  V30 END SGROUP
M  V30 END CTAB
M  END
>  <BIGSMILES_BRACKET_RECORDS_JSON>
{
  "records": [
    {
      "id": 0,
      "bracket_kind": "backbone",
      "pairing_id": "F3/fragments[0]",
      "group_id": "<1:3",
      "ru_midpoint": [
        1.5989435400280916,
        -4.0464237356594674
      ],
      "bond_midpoint": [
        1.5489255228145857,
        -2.7475069113745203
      ],
      "orientation_vector": [
        1.0,
        0.0
      ],
      "half_bracket_size": 0.5001001599500253,
      "bond": [
        11,
        13
      ],
      "fragment": "F3",
      "backbone": true,
      "suspended_anchor_atom": null,
      "suspended_reason": null,
      "source_label": "F3/fragments[0]",
      "marker_id": "0",
      "side": "left",
      "connection_group": "<1",
      "marker_type_index": 3
    },
    {
      "id": 1,
      "bracket_kind": "backbone",
      "pairing_id": "F3/fragments[0]",
      "group_id": ">1:4",
      "ru_midpoint": [
        1.5989435400280916,
        -4.0464237356594674
      ],
      "bond_midpoint": [
        1.548952329920433,
        -5.345353163272029
      ],
      "orientation_vector": [
        1.0,
        0.0
      ],
      "half_bracket_size": 0.5001001599500253,
      "bond": [
        12,
        15
      ],
      "fragment": "F3",
      "backbone": true,
      "suspended_anchor_atom": null,
      "suspended_reason": null,
      "source_label": "F3/fragments[0]",
      "marker_id": "4",
      "side": "right",
      "connection_group": ">1",
      "marker_type_index": 4
    },
    {
      "id": 2,
      "bracket_kind": "backbone",
      "pairing_id": "F1-1/subMolblock",
      "group_id": "$a:2",
      "ru_midpoint": [
        0.8658529941564748,
        -0.1985244881438057
      ],
      "bond_midpoint": [
        -0.0001733050492636612,
        -0.1986
      ],
      "orientation_vector": [
        0.0,
        1.0
      ],
      "half_bracket_size": 0.4999730592252327,
      "bond": [
        3,
        7
      ],
      "fragment": "F1-1",
      "backbone": true,
      "suspended_anchor_atom": null,
      "suspended_reason": null,
      "source_label": "F1-1/subMolblock",
      "marker_id": "0",
      "side": "left",
      "connection_group": "$a",
      "marker_type_index": 2
    },
    {
      "id": 3,
      "bracket_kind": "backbone",
      "pairing_id": "F1-1/subMolblock",
      "group_id": "$a:2",
      "ru_midpoint": [
        0.8658529941564748,
        -0.1985244881438057
      ],
      "bond_midpoint": [
        1.731896072328372,
        -0.19853593174130552
      ],
      "orientation_vector": [
        0.0,
        1.0
      ],
      "half_bracket_size": 0.4999730592252327,
      "bond": [
        1,
        8
      ],
      "fragment": "F1-1",
      "backbone": true,
      "suspended_anchor_atom": null,
      "suspended_reason": null,
      "source_label": "F1-1/subMolblock",
      "marker_id": "4",
      "side": "right",
      "connection_group": "$a",
      "marker_type_index": 2
    },
    {
      "id": 4,
      "bracket_kind": "backbone",
      "pairing_id": "F1/fragments[0]",
      "group_id": "$a:2",
      "ru_midpoint": [
        -0.8663948260078642,
        -0.19860353063966313
      ],
      "bond_midpoint": [
        -1.7324868817512753,
        -0.1986
      ],
      "orientation_vector": [
        0.0,
        1.0
      ],
      "half_bracket_size": 0.5001011957426217,
      "bond": [
        0,
        2
      ],
      "fragment": "F1",
      "backbone": true,
      "suspended_anchor_atom": null,
      "suspended_reason": null,
      "source_label": "F1/fragments[0]",
      "marker_id": "0",
      "side": "left",
      "connection_group": "$a",
      "marker_type_index": 2
    },
    {
      "id": 5,
      "bracket_kind": "backbone",
      "pairing_id": "F1/fragments[0]",
      "group_id": "$a:2",
      "ru_midpoint": [
        -0.8663948260078642,
        -0.19860353063966313
      ],
      "bond_midpoint": [
        -0.0001733050492636612,
        -0.1986
      ],
      "orientation_vector": [
        0.0,
        1.0
      ],
      "half_bracket_size": 0.5001011957426217,
      "bond": [
        3,
        7
      ],
      "fragment": "F1",
      "backbone": true,
      "suspended_anchor_atom": null,
      "suspended_reason": null,
      "source_label": "F1/fragments[0]",
      "marker_id": "6",
      "side": "right",
      "connection_group": "$a",
      "marker_type_index": 2
    },
    {
      "id": 6,
      "bracket_kind": "backbone",
      "pairing_id": "F1/connected",
      "group_id": "$overall",
      "ru_midpoint": [
        0.7742396946444894,
        -1.9060092400025592
      ],
      "bond_midpoint": [
        -1.7324868817512753,
        -0.1986
      ],
      "orientation_vector": [
        0.0,
        1.0
      ],
      "half_bracket_size": 5.829776684457904,
      "bond": [
        0,
        2
      ],
      "fragment": "F1",
      "backbone": true,
      "suspended_anchor_atom": null,
      "suspended_reason": null,
      "source_label": "F1/connected",
      "marker_id": "connected-overall-left",
      "side": "left",
      "connection_group": "$overall",
      "marker_type_index": null
    },
    {
      "id": 7,
      "bracket_kind": "backbone",
      "pairing_id": "F1/connected",
      "group_id": "$overall",
      "ru_midpoint": [
        0.7742396946444894,
        -1.9060092400025592
      ],
      "bond_midpoint": [
        1.731896072328372,
        -0.19853593174130552
      ],
      "orientation_vector": [
        0.0,
        1.0
      ],
      "half_bracket_size": 5.829776684457904,
      "bond": [
        1,
        8
      ],
      "fragment": "F1",
      "backbone": true,
      "suspended_anchor_atom": null,
      "suspended_reason": null,
      "source_label": "F1/connected",
      "marker_id": "connected-overall-right",
      "side": "right",
      "connection_group": "$overall",
      "marker_type_index": null
    }
  ]
}
