
     RDKit          2D

  0  0  0  0  0  0  0  0  0  0999 V3000
M  V30 BEGIN CTAB
M  V30 COUNTS 38 40 3 0 0
M  V30 BEGIN ATOM
M  V30 1 C -6.778091 -1.605307 0.000000 0
M  V30 2 O -5.912095 -1.105407 0.000000 0
M  V30 3 C -2.448287 -1.105354 0.000000 0
M  V30 4 O -2.448290 -0.105353 0.000000 0
M  V30 5 C -1.582167 -1.605254 0.000000 0
M  V30 6 C -1.582167 -2.605254 0.000000 0
M  V30 7 C -2.448168 -3.105161 0.000000 0
M  V30 8 C -2.448168 -4.105362 0.000000 0
M  V30 9 C -1.582167 -4.605055 0.000000 0
M  V30 10 C -0.716167 -4.105347 0.000000 0
M  V30 11 C -0.716167 -3.105147 0.000000 0
M  V30 12 S 2.747869 -1.105170 0.000000 0
M  V30 13 C 3.613874 -1.605071 0.000000 0
M  V30 14 S 3.613874 -2.605071 0.000000 0
M  V30 15 C 4.613874 -1.605071 0.000000 0
M  V30 16 C 5.113850 -2.471055 0.000000 0
M  V30 17 C 6.113802 -2.471055 0.000000 0
M  V30 18 C 6.613778 -1.605071 0.000000 0
M  V30 19 C 6.113802 -0.739086 0.000000 0
M  V30 20 C 5.113850 -0.739086 0.000000 0
M  V30 21 C -5.046118 -1.605491 0.000000 0
M  V30 22 C -4.180122 -1.105391 0.000000 0
M  V30 23 O -3.314233 -1.605491 0.000000 0
M  V30 24 C -0.716162 -1.105219 0.000000 0
M  V30 25 C 0.149892 -1.605220 0.000000 0
M  V30 26 C 0.149892 -0.605195 0.000000 0
M  V30 27 C 0.149892 -2.605252 0.000000 0
M  V30 28 O -0.716081 -3.105343 0.000000 0
M  V30 29 O 1.016038 -3.105092 0.000000 0
M  V30 30 C 1.016038 -4.105124 0.000000 0
M  V30 31 C 1.015914 -1.105214 0.000000 0
M  V30 32 C 1.881873 -1.605221 0.000000 0
M  V30 33 C 1.881873 -2.605223 0.000000 0
M  V30 34 C 1.015671 -3.105156 0.000000 0
M  V30 35 C 1.015871 -4.105158 0.000000 0
M  V30 36 C 1.881673 -4.605227 0.000000 0
M  V30 37 C 2.747875 -4.105294 0.000000 0
M  V30 38 C 2.747675 -3.105292 0.000000 0
M  V30 END ATOM
M  V30 BEGIN BOND
M  V30 1 1 1 2
M  V30 2 2 3 4
M  V30 3 1 3 5
M  V30 4 1 5 6
M  V30 5 2 6 7
M  V30 6 1 7 8
M  V30 7 2 8 9
M  V30 8 1 9 10
M  V30 9 2 10 11
M  V30 10 1 12 13
M  V30 11 2 13 14
M  V30 12 1 13 15
M  V30 13 2 15 16
M  V30 14 1 16 17
M  V30 15 2 17 18
M  V30 16 1 18 19
M  V30 17 2 19 20
M  V30 18 1 11 6
M  V30 19 1 20 15
M  V30 20 1 21 22
M  V30 21 1 22 23
M  V30 22 1 2 21
M  V30 23 1 3 23
M  V30 24 1 24 25
M  V30 25 1 25 26
M  V30 26 1 25 27
M  V30 27 2 27 28
M  V30 28 1 27 29
M  V30 29 1 29 30
M  V30 30 1 5 24
M  V30 31 1 31 32
M  V30 32 1 32 33
M  V30 33 2 33 34
M  V30 34 1 34 35
M  V30 35 2 35 36
M  V30 36 1 36 37
M  V30 37 2 37 38
M  V30 38 1 38 33
M  V30 39 1 25 31
M  V30 40 1 12 32
M  V30 END BOND
M  V30 BEGIN SGROUP
M  V30 1 SRU 0 ATOMS=(4 12 25 31 32) CBONDS=(2 39 40) -
M  V30 BRKXYZ=(9 0.5829 -0.8552 0 0.5829 -1.8552 0 0 0 0) BRKXYZ=(9 2.3149 -0.-
M  V30 8552 0 2.3149 -1.8552 0 0 0 0)
M  V30 2 SRU 0 ATOMS=(4 5 24 25 31) CBONDS=(2 30 39) -
M  V30 BRKXYZ=(9 -1.1492 -0.8552 0 -1.1492 -1.8552 0 0 0 0) BRKXYZ=(9 0.5829 --
M  V30 0.8552 0 0.5829 -1.8552 0 0 0 0)
M  V30 3 SRU 0 ATOMS=(4 2 3 21 23) CBONDS=(2 22 23) -
M  V30 BRKXYZ=(9 -5.4791 -0.8553 0 -5.4791 -1.8555 0 0 0 0) BRKXYZ=(9 -2.8813 -
M  V30 -0.8553 0 -2.8813 -1.8555 0 0 0 0)
M  V30 END SGROUP
M  V30 END CTAB
M  END
>  <BIGSMILES_BRACKET_RECORDS_JSON>
{
  "records": [
    {
      "id": 0,
      "bracket_kind": "backbone",
      "pairing_id": "F3/fragments[0]",
      "group_id": "$a:2",
      "ru_midpoint": [
        1.448867975323223,
        -1.3552170780617931
      ],
      "bond_midpoint": [
        0.5829029357235622,
        -1.3552165780562344
      ],
      "orientation_vector": [
        0.0,
        1.0
      ],
      "half_bracket_size": 0.5000070589092322,
      "bond": [
        24,
        30
      ],
      "fragment": "F3",
      "backbone": true,
      "suspended_anchor_atom": null,
      "suspended_reason": null,
      "source_label": "F3/fragments[0]",
      "marker_id": "0",
      "side": "left",
      "connection_group": "$a",
      "marker_type_index": 2
    },
    {
      "id": 1,
      "bracket_kind": "backbone",
      "pairing_id": "F3/fragments[0]",
      "group_id": "$a:2",
      "ru_midpoint": [
        1.448867975323223,
        -1.3552170780617931
      ],
      "bond_midpoint": [
        2.3148712156597293,
        -1.3551955199693353
      ],
      "orientation_vector": [
        0.0,
        1.0
      ],
      "half_bracket_size": 0.5000070589092322,
      "bond": [
        11,
        31
      ],
      "fragment": "F3",
      "backbone": true,
      "suspended_anchor_atom": null,
      "suspended_reason": null,
      "source_label": "F3/fragments[0]",
      "marker_id": "9",
      "side": "right",
      "connection_group": "$a",
      "marker_type_index": 2
    },
    {
      "id": 2,
      "bracket_kind": "backbone",
      "pairing_id": "F2/fragments[0]",
      "group_id": "$a:2",
      "ru_midpoint": [
        -0.28313491085929066,
        -1.355219528940694
      ],
      "bond_midpoint": [
        -1.1491646245289062,
        -1.355236565687393
      ],
      "orientation_vector": [
        0.0,
        1.0
      ],
      "half_bracket_size": 0.500000157129195,
      "bond": [
        4,
        23
      ],
      "fragment": "F2",
      "backbone": true,
      "suspended_anchor_atom": null,
      "suspended_reason": null,
      "source_label": "F2/fragments[0]",
      "marker_id": "0",
      "side": "left",
      "connection_group": "$a",
      "marker_type_index": 2
    },
    {
      "id": 3,
      "bracket_kind": "backbone",
      "pairing_id": "F2/fragments[0]",
      "group_id": "$a:2",
      "ru_midpoint": [
        -0.28313491085929066,
        -1.355219528940694
      ],
      "bond_midpoint": [
        0.5829029357235622,
        -1.3552165780562344
      ],
      "orientation_vector": [
        0.0,
        1.0
      ],
      "half_bracket_size": 0.500000157129195,
      "bond": [
        24,
        30
      ],
      "fragment": "F2",
      "backbone": true,
      "suspended_anchor_atom": null,
      "suspended_reason": null,
      "source_label": "F2/fragments[0]",
      "marker_id": "8",
      "side": "right",
      "connection_group": "$a",
      "marker_type_index": 2
    },
    {
      "id": 4,
      "bracket_kind": "backbone",
      "pairing_id": "F1/fragments[0]",
      "group_id": "<1:3",
      "ru_midpoint": [
        -4.180189781291441,
        -1.3054311967380272
      ],
      "bond_midpoint": [
        -5.479106605576387,
        -1.3554492139515326
      ],
      "orientation_vector": [
        0.0,
        1.0
      ],
      "half_bracket_size": 0.5001001599500253,
      "bond": [
        1,
        20
      ],
      "fragment": "F1",
      "backbone": true,
      "suspended_anchor_atom": null,
      "suspended_reason": null,
      "source_label": "F1/fragments[0]",
      "marker_id": "0",
      "side": "left",
      "connection_group": "<1",
      "marker_type_index": 3
    },
    {
      "id": 5,
      "bracket_kind": "backbone",
      "pairing_id": "F1/fragments[0]",
      "group_id": ">1:4",
      "ru_midpoint": [
        -4.180189781291441,
        -1.3054311967380272
      ],
      "bond_midpoint": [
        -2.8812603536788783,
        -1.3554224068456848
      ],
      "orientation_vector": [
        0.0,
        1.0
      ],
      "half_bracket_size": 0.5001001599500253,
      "bond": [
        2,
        22
      ],
      "fragment": "F1",
      "backbone": true,
      "suspended_anchor_atom": null,
      "suspended_reason": null,
      "source_label": "F1/fragments[0]",
      "marker_id": "4",
      "side": "right",
      "connection_group": ">1",
      "marker_type_index": 4
    }
  ]
}
