
     RDKit          2D

  0  0  0  0  0  0  0  0  0  0999 V3000
M  V30 BEGIN CTAB
M  V30 COUNTS 29 29 1 0 0
M  V30 BEGIN ATOM
M  V30 1 H -8.495243 -0.015516 0.000000 0
M  V30 2 H 8.494844 -0.515503 0.000000 0
M  V30 3 N -7.629227 0.484388 0.000000 0
M  V30 4 C -6.763211 -0.015516 0.000000 0
M  V30 5 C -5.763211 -0.015516 0.000000 0
M  V30 6 C -5.263184 -0.881588 0.000000 0
M  V30 7 C -4.263130 -0.881588 0.000000 0
M  V30 8 C -5.263184 0.850557 0.000000 0
M  V30 9 C -4.263130 0.850557 0.000000 0
M  V30 10 C -3.763103 -0.015516 0.000000 0
M  V30 11 C -2.763103 -0.015516 0.000000 0
M  V30 12 N -1.897088 -0.515619 0.000000 0
M  V30 13 C -1.031092 -0.015516 0.000000 0
M  V30 14 C -0.165077 -0.515619 0.000000 0
M  V30 15 C 0.700919 -0.015516 0.000000 0
M  V30 16 Si 1.566934 -0.515619 0.000000 0 VAL=4
M  V30 17 C 1.566934 0.484407 0.000000 0
M  V30 18 C 1.566934 -1.515562 0.000000 0
M  V30 19 O 2.432930 -0.015516 0.000000 0
M  V30 20 Si 5.031032 -0.515503 0.000000 0 VAL=4
M  V30 21 C 5.031032 -1.515529 0.000000 0
M  V30 22 C 5.031032 0.484440 0.000000 0
M  V30 23 C 5.897047 -0.015400 0.000000 0
M  V30 24 C 6.763043 -0.515503 0.000000 0
M  V30 25 C 7.628944 -0.015400 0.000000 0
M  V30 26 Si 3.298956 -0.515516 0.000000 0 VAL=4
M  V30 27 C 3.298956 0.484409 0.000000 0
M  V30 28 C 3.298956 -1.515540 0.000000 0
M  V30 29 O 4.165009 -0.015500 0.000000 0
M  V30 END ATOM
M  V30 BEGIN BOND
M  V30 1 2 3 4 CFG=2
M  V30 2 1 4 5
M  V30 3 2 5 6
M  V30 4 1 6 7
M  V30 5 1 5 8
M  V30 6 2 8 9
M  V30 7 1 9 10
M  V30 8 1 10 11
M  V30 9 2 11 12 CFG=2
M  V30 10 1 12 13
M  V30 11 1 13 14
M  V30 12 1 14 15
M  V30 13 1 15 16
M  V30 14 1 16 17
M  V30 15 1 16 18
M  V30 16 1 16 19
M  V30 17 1 20 21
M  V30 18 1 20 22
M  V30 19 1 20 23
M  V30 20 1 23 24
M  V30 21 1 24 25
M  V30 22 2 10 7
M  V30 23 1 26 27
M  V30 24 1 26 28
M  V30 25 1 26 29
M  V30 26 1 19 26
M  V30 27 1 20 29
M  V30 28 1 1 3
M  V30 29 1 2 25
M  V30 END BOND
M  V30 BEGIN SGROUP
M  V30 1 SRU 0 ATOMS=(4 19 20 26 29) CBONDS=(2 26 27) -
M  V30 BRKXYZ=(9 2.8659 0.2345 0 2.8659 -0.7655 0 0 0 0) BRKXYZ=(9 4.5980 0.23-
M  V30 45 0 4.5980 -0.7655 0 0 0 0)
M  V30 END SGROUP
M  V30 END CTAB
M  END
>  <BIGSMILES_BRACKET_RECORDS_JSON>
{
  "records": [
    {
      "id": 0,
      "bracket_kind": "backbone",
      "pairing_id": "F2/fragments[0]",
      "group_id": ">1:4",
      "ru_midpoint": [
        3.7319800062494544,
        -0.26550756937635134
      ],
      "bond_midpoint": [
        2.8659428650983028,
        -0.26551556924835523
      ],
      "orientation_vector": [
        0.0,
        1.0
      ],
      "half_bracket_size": 0.5000159997440081,
      "bond": [
        18,
        25
      ],
      "fragment": "F2",
      "backbone": true,
      "suspended_anchor_atom": null,
      "suspended_reason": null,
      "source_label": "F2/fragments[0]",
      "marker_id": "0",
      "side": "left",
      "connection_group": ">1",
      "marker_type_index": 4
    },
    {
      "id": 1,
      "bracket_kind": "backbone",
      "pairing_id": "F2/fragments[0]",
      "group_id": "<1:3",
      "ru_midpoint": [
        3.7319800062494544,
        -0.26550756937635134
      ],
      "bond_midpoint": [
        4.598020325649921,
        -0.26550140440711595
      ],
      "orientation_vector": [
        0.0,
        1.0
      ],
      "half_bracket_size": 0.5000159997440081,
      "bond": [
        19,
        28
      ],
      "fragment": "F2",
      "backbone": true,
      "suspended_anchor_atom": null,
      "suspended_reason": null,
      "source_label": "F2/fragments[0]",
      "marker_id": "5",
      "side": "right",
      "connection_group": "<1",
      "marker_type_index": 3
    }
  ]
}
