
     RDKit          2D

  0  0  0  0  0  0  0  0  0  0999 V3000
M  V30 BEGIN CTAB
M  V30 COUNTS 25 24 4 0 0
M  V30 BEGIN ATOM
M  V30 1 C 1.714091 1.645146 0.000000 0
M  V30 2 C 2.580138 1.145134 0.000000 0
M  V30 3 O 3.446193 1.645146 0.000000 0
M  V30 4 H 6.909944 1.645162 0.000000 0
M  V30 5 C 0.848045 1.145134 0.000000 0
M  V30 6 O -0.017960 1.645234 0.000000 0
M  V30 7 H -3.481711 1.645250 0.000000 0
M  V30 8 C -0.883937 1.145150 0.000000 0
M  V30 9 C -1.749933 1.645250 0.000000 0
M  V30 10 O -2.615822 1.145150 0.000000 0
M  V30 11 C 1.714091 0.645146 0.000000 0
M  V30 12 O 1.213991 -0.220858 0.000000 0
M  V30 13 H 1.213975 -3.684609 0.000000 0
M  V30 14 C 1.714075 -1.086835 0.000000 0
M  V30 15 C 1.213975 -1.952831 0.000000 0
M  V30 16 O 1.714075 -2.818720 0.000000 0
M  V30 17 C 1.714091 2.645146 0.000000 0
M  V30 18 O 2.214192 3.511151 0.000000 0
M  V30 19 H 2.214208 6.974902 0.000000 0
M  V30 20 C 1.714107 4.377128 0.000000 0
M  V30 21 C 2.214208 5.243124 0.000000 0
M  V30 22 O 1.714107 6.109013 0.000000 0
M  V30 23 C 4.312170 1.145062 0.000000 0
M  V30 24 C 5.178166 1.645162 0.000000 0
M  V30 25 O 6.044055 1.145062 0.000000 0
M  V30 END ATOM
M  V30 BEGIN BOND
M  V30 1 1 1 2
M  V30 2 1 2 3
M  V30 3 1 5 6
M  V30 4 1 8 9
M  V30 5 1 9 10
M  V30 6 1 6 8
M  V30 7 1 7 10
M  V30 8 1 1 5
M  V30 9 1 11 12
M  V30 10 1 14 15
M  V30 11 1 15 16
M  V30 12 1 12 14
M  V30 13 1 13 16
M  V30 14 1 1 11
M  V30 15 1 17 18
M  V30 16 1 20 21
M  V30 17 1 21 22
M  V30 18 1 18 20
M  V30 19 1 19 22
M  V30 20 1 1 17
M  V30 21 1 23 24
M  V30 22 1 24 25
M  V30 23 1 3 23
M  V30 24 1 4 25
M  V30 END BOND
M  V30 BEGIN SGROUP
M  V30 1 SRU 0 ATOMS=(4 18 19 20 22) CBONDS=(2 18 19) -
M  V30 BRKXYZ=(9 2.4642 3.9441 0 1.4640 3.9441 0 0 0 0) BRKXYZ=(9 2.4643 6.542-
M  V30 0 0 1.4641 6.5420 0 0 0 0)
M  V30 2 SRU 0 ATOMS=(4 12 13 14 16) CBONDS=(2 12 13) -
M  V30 BRKXYZ=(9 0.9639 -0.6538 0 1.9641 -0.6538 0 0 0 0) BRKXYZ=(9 0.9639 -3.-
M  V30 2517 0 1.9641 -3.2517 0 0 0 0)
M  V30 3 SRU 0 ATOMS=(4 6 7 8 10) CBONDS=(2 6 7) -
M  V30 BRKXYZ=(9 -0.4509 1.8953 0 -0.4509 0.8951 0 0 0 0) BRKXYZ=(9 -3.0488 1.-
M  V30 8953 0 -3.0488 0.8951 0 0 0 0)
M  V30 4 SRU 0 ATOMS=(4 3 4 23 25) CBONDS=(2 23 24) -
M  V30 BRKXYZ=(9 3.8792 1.8952 0 3.8792 0.8950 0 0 0 0) BRKXYZ=(9 6.4770 1.895-
M  V30 2 0 6.4770 0.8950 0 0 0 0)
M  V30 END SGROUP
M  V30 END CTAB
M  END
>  <BIGSMILES_BRACKET_RECORDS_JSON>
{
  "records": [
    {
      "id": 0,
      "bracket_kind": "backbone",
      "pairing_id": "F7/fragments[0]",
      "group_id": ">1:4",
      "ru_midpoint": [
        2.014111061216308,
        5.242970705339166
      ],
      "bond_midpoint": [
        1.9641494616648372,
        3.9441393331543892
      ],
      "orientation_vector": [
        1.0,
        0.0
      ],
      "half_bracket_size": 0.5001001599500253,
      "bond": [
        17,
        19
      ],
      "fragment": "F7",
      "backbone": true,
      "suspended_anchor_atom": null,
      "suspended_reason": null,
      "source_label": "F7/fragments[0]",
      "marker_id": "0",
      "side": "left",
      "connection_group": ">1",
      "marker_type_index": 4
    },
    {
      "id": 1,
      "bracket_kind": "backbone",
      "pairing_id": "F7/fragments[0]",
      "group_id": "<1:3",
      "ru_midpoint": [
        2.014111061216308,
        5.242970705339166
      ],
      "bond_midpoint": [
        1.9641574628833394,
        6.541957101018507
      ],
      "orientation_vector": [
        1.0,
        0.0
      ],
      "half_bracket_size": 0.5001001599500253,
      "bond": [
        18,
        21
      ],
      "fragment": "F7",
      "backbone": true,
      "suspended_anchor_atom": null,
      "suspended_reason": null,
      "source_label": "F7/fragments[0]",
      "marker_id": "4",
      "side": "right",
      "connection_group": "<1",
      "marker_type_index": 3
    },
    {
      "id": 2,
      "bracket_kind": "backbone",
      "pairing_id": "F6/fragments[0]",
      "group_id": ">1:4",
      "ru_midpoint": [
        1.4140528938389916,
        -1.9527063746005913
      ],
      "bond_midpoint": [
        1.4640332992778071,
        -0.6538465183824247
      ],
      "orientation_vector": [
        -1.0,
        0.0
      ],
      "half_bracket_size": 0.5001001599500253,
      "bond": [
        11,
        13
      ],
      "fragment": "F6",
      "backbone": true,
      "suspended_anchor_atom": null,
      "suspended_reason": null,
      "source_label": "F6/fragments[0]",
      "marker_id": "0",
      "side": "left",
      "connection_group": ">1",
      "marker_type_index": 4
    },
    {
      "id": 3,
      "bracket_kind": "backbone",
      "pairing_id": "F6/fragments[0]",
      "group_id": "<1:3",
      "ru_midpoint": [
        1.4140528938389916,
        -1.9527063746005913
      ],
      "bond_midpoint": [
        1.4640252980593045,
        -3.2516642862465432
      ],
      "orientation_vector": [
        -1.0,
        0.0
      ],
      "half_bracket_size": 0.5001001599500253,
      "bond": [
        12,
        15
      ],
      "fragment": "F6",
      "backbone": true,
      "suspended_anchor_atom": null,
      "suspended_reason": null,
      "source_label": "F6/fragments[0]",
      "marker_id": "4",
      "side": "right",
      "connection_group": "<1",
      "marker_type_index": 3
    },
    {
      "id": 4,
      "bracket_kind": "backbone",
      "pairing_id": "F5/fragments[0]",
      "group_id": ">1:4",
      "ru_midpoint": [
        -1.749836645256222,
        1.445191370057683
      ],
      "bond_midpoint": [
        -0.45094830500466526,
        1.3951921587315224
      ],
      "orientation_vector": [
        0.0,
        1.0
      ],
      "half_bracket_size": 0.5001001599500253,
      "bond": [
        5,
        7
      ],
      "fragment": "F5",
      "backbone": true,
      "suspended_anchor_atom": null,
      "suspended_reason": null,
      "source_label": "F5/fragments[0]",
      "marker_id": "0",
      "side": "left",
      "connection_group": ">1",
      "marker_type_index": 4
    },
    {
      "id": 5,
      "bracket_kind": "backbone",
      "pairing_id": "F5/fragments[0]",
      "group_id": "<1:3",
      "ru_midpoint": [
        -1.749836645256222,
        1.445191370057683
      ],
      "bond_midpoint": [
        -3.048766072868784,
        1.3952001599500252
      ],
      "orientation_vector": [
        0.0,
        1.0
      ],
      "half_bracket_size": 0.5001001599500253,
      "bond": [
        6,
        9
      ],
      "fragment": "F5",
      "backbone": true,
      "suspended_anchor_atom": null,
      "suspended_reason": null,
      "source_label": "F5/fragments[0]",
      "marker_id": "4",
      "side": "right",
      "connection_group": "<1",
      "marker_type_index": 3
    },
    {
      "id": 6,
      "bracket_kind": "backbone",
      "pairing_id": "F4/fragments[0]",
      "group_id": ">1:4",
      "ru_midpoint": [
        5.178070120374143,
        1.4451035399556331
      ],
      "bond_midpoint": [
        3.8791817801225847,
        1.3951043286294724
      ],
      "orientation_vector": [
        0.0,
        1.0
      ],
      "half_bracket_size": 0.5001001599500253,
      "bond": [
        2,
        22
      ],
      "fragment": "F4",
      "backbone": true,
      "suspended_anchor_atom": null,
      "suspended_reason": null,
      "source_label": "F4/fragments[0]",
      "marker_id": "0",
      "side": "left",
      "connection_group": ">1",
      "marker_type_index": 4
    },
    {
      "id": 7,
      "bracket_kind": "backbone",
      "pairing_id": "F4/fragments[0]",
      "group_id": "<1:3",
      "ru_midpoint": [
        5.178070120374143,
        1.4451035399556331
      ],
      "bond_midpoint": [
        6.476999547986704,
        1.3951123298479753
      ],
      "orientation_vector": [
        0.0,
        1.0
      ],
      "half_bracket_size": 0.5001001599500253,
      "bond": [
        3,
        24
      ],
      "fragment": "F4",
      "backbone": true,
      "suspended_anchor_atom": null,
      "suspended_reason": null,
      "source_label": "F4/fragments[0]",
      "marker_id": "4",
      "side": "right",
      "connection_group": "<1",
      "marker_type_index": 3
    }
  ]
}
