
     RDKit          2D

  0  0  0  0  0  0  0  0  0  0999 V3000
M  V30 BEGIN CTAB
M  V30 COUNTS 92 87 13 0 0
M  V30 BEGIN ATOM
M  V30 1 H -18.618825 -0.448702 0.000000 0
M  V30 2 H 18.618426 0.051399 0.000000 0
M  V30 3 N -17.752820 0.051399 0.000000 0
M  V30 4 C -16.886816 -0.448702 0.000000 0
M  V30 5 C -16.020820 0.051399 0.000000 0
M  V30 6 C -15.154815 -0.448702 0.000000 0
M  V30 7 O -11.690546 -0.448648 0.000000 0
M  V30 8 C -10.824665 0.051452 0.000000 0
M  V30 9 C -9.958776 -0.448648 0.000000 0
M  V30 10 C -9.092895 0.051452 0.000000 0
M  V30 11 O -8.311452 -0.432391 0.000000 0
M  V30 12 C -4.763199 -0.448702 0.000000 0
M  V30 13 C -3.897203 0.051399 0.000000 0
M  V30 14 C -3.031198 -0.448702 0.000000 0
M  V30 15 N -2.165202 0.051399 0.000000 0
M  V30 16 C -1.299198 -0.448702 0.000000 0
M  V30 17 O -1.299196 -1.448702 0.000000 0
M  V30 18 C -0.433202 0.051399 0.000000 0
M  V30 19 C 0.432803 -0.448702 0.000000 0
M  V30 20 C 1.298799 0.051399 0.000000 0
M  V30 21 O 2.164803 -0.448702 0.000000 0
M  V30 22 C 3.030799 0.051399 0.000000 0
M  V30 23 O 6.495069 0.051345 0.000000 0
M  V30 24 C 7.360958 -0.448755 0.000000 0
M  V30 25 C 8.226839 0.051345 0.000000 0
M  V30 26 C 9.092727 -0.448755 0.000000 0
M  V30 27 O 9.958608 0.051345 0.000000 0
M  V30 28 C 13.422416 0.051399 0.000000 0
M  V30 29 O 14.288420 -0.448702 0.000000 0
M  V30 30 C 15.154416 0.051399 0.000000 0
M  V30 31 C 16.020421 -0.448702 0.000000 0
M  V30 32 C 16.886417 0.051399 0.000000 0
M  V30 33 C 17.752421 -0.448702 0.000000 0
M  V30 34 O 17.752423 -1.448702 0.000000 0
M  V30 35 O -14.288754 0.051236 0.000000 0
M  V30 36 C -13.422749 -0.448664 0.000000 0
M  V30 37 C -12.556638 0.051236 0.000000 0
M  V30 38 C -13.123219 1.051435 0.000000 0
M  V30 39 O -13.989105 0.551345 0.000000 0
M  V30 40 C -10.391274 1.051483 0.000000 0
M  V30 41 C -9.525270 0.551583 0.000000 0
M  V30 42 C -8.659274 1.051483 0.000000 0
M  V30 43 N -7.793269 0.551583 0.000000 0
M  V30 44 R -6.927273 1.051483 0.000000 3
M  V30 45 C -12.989105 0.551345 0.000000 0
M  V30 46 C -12.123109 1.051445 0.000000 0
M  V30 47 O -11.257220 0.551345 0.000000 0
M  V30 48 C -13.123219 -0.948521 0.000000 0
M  V30 49 O -13.989105 -1.448611 0.000000 0
M  V30 50 C -10.391274 -0.948474 0.000000 0
M  V30 51 C -9.525270 -1.448374 0.000000 0
M  V30 52 C -8.659274 -0.948474 0.000000 0
M  V30 53 N -7.793269 -1.448374 0.000000 0
M  V30 54 R -6.927273 -0.948474 0.000000 3
M  V30 55 C -12.989105 -1.448611 0.000000 0
M  V30 56 C -12.123109 -0.948511 0.000000 0
M  V30 57 O -11.257220 -1.448611 0.000000 0
M  V30 58 C -7.276584 0.035179 0.000000 0
M  V30 59 C -6.495034 -0.448664 0.000000 0
M  V30 60 O -5.629145 0.051436 0.000000 0
M  V30 61 O 3.896861 -0.448539 0.000000 0
M  V30 62 C 4.762865 0.051361 0.000000 0
M  V30 63 C 5.628977 -0.448539 0.000000 0
M  V30 64 C 2.464000 -0.948409 0.000000 0
M  V30 65 O 3.330006 -1.448683 0.000000 0
M  V30 66 C 6.927836 -0.948545 0.000000 0
M  V30 67 O 7.793878 -1.448546 0.000000 0
M  V30 68 C 8.659955 -0.948545 0.000000 0
M  V30 69 C 9.525996 -1.448546 0.000000 0
M  V30 70 C 10.391959 -0.948545 0.000000 0
M  V30 71 C 11.257884 -1.448546 0.000000 0
M  V30 72 O 11.257875 -2.448548 0.000000 0
M  V30 73 R 12.123847 -0.948545 0.000000 4
M  V30 74 C 4.330006 -1.448683 0.000000 0
M  V30 75 C 5.196002 -0.948583 0.000000 0
M  V30 76 O 6.061891 -1.448683 0.000000 0
M  V30 77 C 2.464000 1.051548 0.000000 0
M  V30 78 O 3.330006 0.551274 0.000000 0
M  V30 79 C 6.927836 1.051412 0.000000 0
M  V30 80 O 7.793878 0.551411 0.000000 0
M  V30 81 C 8.659955 1.051412 0.000000 0
M  V30 82 C 9.525996 0.551411 0.000000 0
M  V30 83 C 10.391959 1.051412 0.000000 0
M  V30 84 C 11.257884 0.551411 0.000000 0
M  V30 85 O 11.257875 -0.448591 0.000000 0
M  V30 86 R 12.123847 1.051412 0.000000 4
M  V30 87 C 4.330006 0.551274 0.000000 0
M  V30 88 C 5.196002 1.051374 0.000000 0
M  V30 89 O 6.061891 0.551274 0.000000 0
M  V30 90 C 10.824585 -0.448739 0.000000 0
M  V30 91 C 11.690581 0.051361 0.000000 0
M  V30 92 O 12.556470 -0.448739 0.000000 0
M  V30 END ATOM
M  V30 BEGIN BOND
M  V30 1 1 3 4
M  V30 2 1 4 5
M  V30 3 1 5 6
M  V30 4 1 7 8
M  V30 5 1 8 9
M  V30 6 1 9 10
M  V30 7 1 10 11
M  V30 8 1 12 13
M  V30 9 1 13 14
M  V30 10 1 14 15
M  V30 11 1 15 16
M  V30 12 2 16 17
M  V30 13 1 16 18
M  V30 14 1 18 19
M  V30 15 1 19 20
M  V30 16 1 20 21
M  V30 17 1 21 22
M  V30 18 1 23 24
M  V30 19 1 24 25
M  V30 20 1 25 26
M  V30 21 1 26 27
M  V30 22 1 28 29
M  V30 23 1 29 30
M  V30 24 1 30 31
M  V30 25 1 31 32
M  V30 26 1 32 33
M  V30 27 2 33 34
M  V30 28 1 35 36
M  V30 29 1 36 37
M  V30 30 1 6 35
M  V30 31 1 7 37
M  V30 32 1 38 39
M  V30 33 1 40 41
M  V30 34 1 41 42
M  V30 35 1 42 43
M  V30 36 1 43 44
M  V30 37 1 45 46
M  V30 38 1 46 47
M  V30 39 1 39 45
M  V30 40 1 40 47
M  V30 41 1 48 49
M  V30 42 1 50 51
M  V30 43 1 51 52
M  V30 44 1 52 53
M  V30 45 1 53 54
M  V30 46 1 55 56
M  V30 47 1 56 57
M  V30 48 1 49 55
M  V30 49 1 50 57
M  V30 50 1 58 59
M  V30 51 1 59 60
M  V30 52 1 11 58
M  V30 53 1 12 60
M  V30 54 1 61 62
M  V30 55 1 62 63
M  V30 56 1 22 61
M  V30 57 1 23 63
M  V30 58 1 64 65
M  V30 59 1 66 67
M  V30 60 1 67 68
M  V30 61 1 68 69
M  V30 62 1 69 70
M  V30 63 1 70 71
M  V30 64 2 71 72
M  V30 65 1 71 73
M  V30 66 1 74 75
M  V30 67 1 75 76
M  V30 68 1 65 74
M  V30 69 1 66 76
M  V30 70 1 77 78
M  V30 71 1 79 80
M  V30 72 1 80 81
M  V30 73 1 81 82
M  V30 74 1 82 83
M  V30 75 1 83 84
M  V30 76 2 84 85
M  V30 77 1 84 86
M  V30 78 1 87 88
M  V30 79 1 88 89
M  V30 80 1 78 87
M  V30 81 1 79 89
M  V30 82 1 90 91
M  V30 83 1 91 92
M  V30 84 1 27 90
M  V30 85 1 28 92
M  V30 86 1 1 3
M  V30 87 1 2 33
M  V30 END BOND
M  V30 BEGIN SGROUP
M  V30 1 SRU 0 ATOMS=(4 78 79 87 89) CBONDS=(2 80 81) -
M  V30 BRKXYZ=(9 3.8300 1.0514 0 3.8300 0.0512 0 0 0 0) BRKXYZ=(9 6.4949 1.301-
M  V30 4 0 6.4949 0.3012 0 0 0 0)
M  V30 2 SRU 0 ATOMS=(4 65 66 74 76) CBONDS=(2 68 69) -
M  V30 BRKXYZ=(9 3.8300 -0.9486 0 3.8300 -1.9488 0 0 0 0) BRKXYZ=(9 6.4949 -0.-
M  V30 6985 0 6.4949 -1.6987 0 0 0 0)
M  V30 3 SRU 0 ATOMS=(4 49 50 55 57) CBONDS=(2 48 49) -
M  V30 BRKXYZ=(9 -13.4891 -0.9485 0 -13.4891 -1.9487 0 0 0 0) BRKXYZ=(9 -10.82-
M  V30 42 -0.6984 0 -10.8242 -1.6986 0 0 0 0)
M  V30 4 SRU 0 ATOMS=(4 39 40 45 47) CBONDS=(2 39 40) -
M  V30 BRKXYZ=(9 -13.4891 1.0514 0 -13.4891 0.0512 0 0 0 0) BRKXYZ=(9 -10.8242-
M  V30  1.3015 0 -10.8242 0.3013 0 0 0 0)
M  V30 5 SRU 0 ATOMS=(4 27 28 90 92) CBONDS=(2 84 85) -
M  V30 BRKXYZ=(9 10.3916 0.3014 0 10.3916 -0.6988 0 0 0 0) BRKXYZ=(9 12.9894 0-
M  V30 .3014 0 12.9894 -0.6988 0 0 0 0)
M  V30 6 SRU 0 ATOMS=(4 22 23 61 63) CBONDS=(2 56 57) -
M  V30 BRKXYZ=(9 3.4638 0.3013 0 3.4638 -0.6985 0 0 0 0) BRKXYZ=(9 6.0620 0.30-
M  V30 13 0 6.0620 -0.6985 0 0 0 0)
M  V30 7 SRU 0 ATOMS=(4 11 12 58 60) CBONDS=(2 52 53) -
M  V30 BRKXYZ=(9 -7.7940 -0.6987 0 -7.7940 0.3015 0 0 0 0) BRKXYZ=(9 -5.1962 --
M  V30 0.6987 0 -5.1962 0.3015 0 0 0 0)
M  V30 8 SRU 0 ATOMS=(4 6 7 35 37) CBONDS=(2 30 31) -
M  V30 BRKXYZ=(9 -14.7218 -0.6986 0 -14.7218 0.3012 0 0 0 0) BRKXYZ=(9 -12.123-
M  V30 6 -0.6986 0 -12.1236 0.3012 0 0 0 0)
M  V30 9 SRU 0 ATOMS=(4 1 2 3 33) CBONDS=(2 86 87) -
M  V30 BRKXYZ=(9 -18.1858 0.3515 0 -18.1858 -0.7488 0 0 0 0) BRKXYZ=(9 18.1854-
M  V30  0.3515 0 18.1854 -0.7488 0 0 0 0)
M  V30 10 SRU 0 ATOMS=(2 43 44) CBONDS=(1 36) -
M  V30 BRKXYZ=(9 -7.1103 0.3685 0 -7.6102 1.2345 0 0 0 0)
M  V30 11 SRU 0 ATOMS=(2 53 54) CBONDS=(1 45) -
M  V30 BRKXYZ=(9 -7.1103 -1.6314 0 -7.6102 -0.7654 0 0 0 0)
M  V30 12 SRU 0 ATOMS=(2 71 73) CBONDS=(1 65) -
M  V30 BRKXYZ=(9 11.9409 -1.6315 0 11.4409 -0.7656 0 0 0 0)
M  V30 13 SRU 0 ATOMS=(2 84 86) CBONDS=(1 77) -
M  V30 BRKXYZ=(9 11.9409 0.3684 0 11.4409 1.2344 0 0 0 0)
M  V30 END SGROUP
M  V30 END CTAB
M  END
>  <BIGSMILES_BRACKET_RECORDS_JSON>
{
  "records": [
    {
      "id": 0,
      "bracket_kind": "backbone",
      "pairing_id": "F13/fragments[0]",
      "group_id": ">1:4",
      "ru_midpoint": [
        5.195934107028,
        0.8513340862188556
      ],
      "bond_midpoint": [
        3.8300056877276702,
        0.5512739902488408
      ],
      "orientation_vector": [
        0.0,
        1.0
      ],
      "half_bracket_size": 0.5001001599500253,
      "bond": [
        77,
        86
      ],
      "fragment": "F13",
      "backbone": true,
      "suspended_anchor_atom": null,
      "suspended_reason": null,
      "source_label": "F13/fragments[0]",
      "marker_id": "0",
      "side": "left",
      "connection_group": ">1",
      "marker_type_index": 4
    },
    {
      "id": 1,
      "bracket_kind": "backbone",
      "pairing_id": "F13/fragments[0]",
      "group_id": "<1:3",
      "ru_midpoint": [
        5.195934107028,
        0.8513340862188556
      ],
      "bond_midpoint": [
        6.494863534640562,
        0.8013428761111977
      ],
      "orientation_vector": [
        0.0,
        1.0
      ],
      "half_bracket_size": 0.5001001599500253,
      "bond": [
        78,
        88
      ],
      "fragment": "F13",
      "backbone": true,
      "suspended_anchor_atom": null,
      "suspended_reason": null,
      "source_label": "F13/fragments[0]",
      "marker_id": "4",
      "side": "right",
      "connection_group": "<1",
      "marker_type_index": 3
    },
    {
      "id": 2,
      "bracket_kind": "backbone",
      "pairing_id": "F12/fragments[0]",
      "group_id": ">1:4",
      "ru_midpoint": [
        5.195934107028,
        -1.1486227104414277
      ],
      "bond_midpoint": [
        3.8300056877276702,
        -1.4486828064114425
      ],
      "orientation_vector": [
        0.0,
        1.0
      ],
      "half_bracket_size": 0.5001001599500253,
      "bond": [
        64,
        73
      ],
      "fragment": "F12",
      "backbone": true,
      "suspended_anchor_atom": null,
      "suspended_reason": null,
      "source_label": "F12/fragments[0]",
      "marker_id": "0",
      "side": "left",
      "connection_group": ">1",
      "marker_type_index": 4
    },
    {
      "id": 3,
      "bracket_kind": "backbone",
      "pairing_id": "F12/fragments[0]",
      "group_id": "<1:3",
      "ru_midpoint": [
        5.195934107028,
        -1.1486227104414277
      ],
      "bond_midpoint": [
        6.494863534640562,
        -1.1986139205490856
      ],
      "orientation_vector": [
        0.0,
        1.0
      ],
      "half_bracket_size": 0.5001001599500253,
      "bond": [
        65,
        75
      ],
      "fragment": "F12",
      "backbone": true,
      "suspended_anchor_atom": null,
      "suspended_reason": null,
      "source_label": "F12/fragments[0]",
      "marker_id": "4",
      "side": "right",
      "connection_group": "<1",
      "marker_type_index": 3
    },
    {
      "id": 4,
      "bracket_kind": "backbone",
      "pairing_id": "F11/fragments[0]",
      "group_id": ">1:4",
      "ru_midpoint": [
        -12.123144584368253,
        -1.281911429370858
      ],
      "bond_midpoint": [
        -13.489104907246354,
        -1.448611482687533
      ],
      "orientation_vector": [
        0.0,
        1.0
      ],
      "half_bracket_size": 0.5001001599500253,
      "bond": [
        48,
        54
      ],
      "fragment": "F11",
      "backbone": true,
      "suspended_anchor_atom": null,
      "suspended_reason": null,
      "source_label": "F11/fragments[0]",
      "marker_id": "0",
      "side": "left",
      "connection_group": ">1",
      "marker_type_index": 4
    },
    {
      "id": 5,
      "bracket_kind": "backbone",
      "pairing_id": "F11/fragments[0]",
      "group_id": "<1:3",
      "ru_midpoint": [
        -12.123144584368253,
        -1.281911429370858
      ],
      "bond_midpoint": [
        -10.824247060333462,
        -1.1985425968251757
      ],
      "orientation_vector": [
        0.0,
        1.0
      ],
      "half_bracket_size": 0.5001001599500253,
      "bond": [
        49,
        56
      ],
      "fragment": "F11",
      "backbone": true,
      "suspended_anchor_atom": null,
      "suspended_reason": null,
      "source_label": "F11/fragments[0]",
      "marker_id": "4",
      "side": "right",
      "connection_group": "<1",
      "marker_type_index": 3
    },
    {
      "id": 6,
      "bracket_kind": "backbone",
      "pairing_id": "F10/fragments[0]",
      "group_id": ">1:4",
      "ru_midpoint": [
        -12.123144584368248,
        0.7180450880034034
      ],
      "bond_midpoint": [
        -13.489104907246352,
        0.5513450346867285
      ],
      "orientation_vector": [
        0.0,
        1.0
      ],
      "half_bracket_size": 0.5001001599500253,
      "bond": [
        38,
        44
      ],
      "fragment": "F10",
      "backbone": true,
      "suspended_anchor_atom": null,
      "suspended_reason": null,
      "source_label": "F10/fragments[0]",
      "marker_id": "0",
      "side": "left",
      "connection_group": ">1",
      "marker_type_index": 4
    },
    {
      "id": 7,
      "bracket_kind": "backbone",
      "pairing_id": "F10/fragments[0]",
      "group_id": "<1:3",
      "ru_midpoint": [
        -12.123144584368248,
        0.7180450880034034
      ],
      "bond_midpoint": [
        -10.82424706033346,
        0.8014139205490854
      ],
      "orientation_vector": [
        0.0,
        1.0
      ],
      "half_bracket_size": 0.5001001599500253,
      "bond": [
        39,
        46
      ],
      "fragment": "F10",
      "backbone": true,
      "suspended_anchor_atom": null,
      "suspended_reason": null,
      "source_label": "F10/fragments[0]",
      "marker_id": "4",
      "side": "right",
      "connection_group": "<1",
      "marker_type_index": 3
    },
    {
      "id": 8,
      "bracket_kind": "backbone",
      "pairing_id": "F9/fragments[0]",
      "group_id": ">1:4",
      "ru_midpoint": [
        11.690513352369011,
        -0.14867910738181606
      ],
      "bond_midpoint": [
        10.391596528084063,
        -0.19869712459532105
      ],
      "orientation_vector": [
        0.0,
        1.0
      ],
      "half_bracket_size": 0.5001001599500253,
      "bond": [
        26,
        89
      ],
      "fragment": "F9",
      "backbone": true,
      "suspended_anchor_atom": null,
      "suspended_reason": null,
      "source_label": "F9/fragments[0]",
      "marker_id": "0",
      "side": "left",
      "connection_group": ">1",
      "marker_type_index": 4
    },
    {
      "id": 9,
      "bracket_kind": "backbone",
      "pairing_id": "F9/fragments[0]",
      "group_id": "<1:3",
      "ru_midpoint": [
        11.690513352369011,
        -0.14867910738181606
      ],
      "bond_midpoint": [
        12.989442779981573,
        -0.19867031748947397
      ],
      "orientation_vector": [
        0.0,
        1.0
      ],
      "half_bracket_size": 0.5001001599500253,
      "bond": [
        27,
        91
      ],
      "fragment": "F9",
      "backbone": true,
      "suspended_anchor_atom": null,
      "suspended_reason": null,
      "source_label": "F9/fragments[0]",
      "marker_id": "4",
      "side": "right",
      "connection_group": "<1",
      "marker_type_index": 3
    },
    {
      "id": 10,
      "bracket_kind": "backbone",
      "pairing_id": "F6/fragments[0]",
      "group_id": "<1:3",
      "ru_midpoint": [
        4.762932749867696,
        -0.14859911380764124
      ],
      "bond_midpoint": [
        3.4638301055475704,
        -0.1985703314426785
      ],
      "orientation_vector": [
        0.0,
        1.0
      ],
      "half_bracket_size": 0.49990016001536197,
      "bond": [
        21,
        60
      ],
      "fragment": "F6",
      "backbone": true,
      "suspended_anchor_atom": null,
      "suspended_reason": null,
      "source_label": "F6/fragments[0]",
      "marker_id": "0",
      "side": "left",
      "connection_group": "<1",
      "marker_type_index": 3
    },
    {
      "id": 11,
      "bracket_kind": "backbone",
      "pairing_id": "F6/fragments[0]",
      "group_id": ">1:4",
      "ru_midpoint": [
        4.762932749867696,
        -0.14859911380764124
      ],
      "bond_midpoint": [
        6.062022780161908,
        -0.19859712782783484
      ],
      "orientation_vector": [
        0.0,
        1.0
      ],
      "half_bracket_size": 0.49990016001536197,
      "bond": [
        22,
        62
      ],
      "fragment": "F6",
      "backbone": true,
      "suspended_anchor_atom": null,
      "suspended_reason": null,
      "source_label": "F6/fragments[0]",
      "marker_id": "4",
      "side": "right",
      "connection_group": ">1",
      "marker_type_index": 4
    },
    {
      "id": 12,
      "bracket_kind": "backbone",
      "pairing_id": "F5/fragments[0]",
      "group_id": ">1:4",
      "ru_midpoint": [
        -6.466920635936102,
        -0.12068281701374572
      ],
      "bond_midpoint": [
        -7.794018046459706,
        -0.1986059200503163
      ],
      "orientation_vector": [
        0.0,
        -1.0
      ],
      "half_bracket_size": 0.5001001599500253,
      "bond": [
        10,
        57
      ],
      "fragment": "F5",
      "backbone": true,
      "suspended_anchor_atom": null,
      "suspended_reason": null,
      "source_label": "F5/fragments[0]",
      "marker_id": "0",
      "side": "left",
      "connection_group": ">1",
      "marker_type_index": 4
    },
    {
      "id": 13,
      "bracket_kind": "backbone",
      "pairing_id": "F5/fragments[0]",
      "group_id": "<1:3",
      "ru_midpoint": [
        -6.466920635936102,
        -0.12068281701374572
      ],
      "bond_midpoint": [
        -5.196171794562197,
        -0.19863272715616387
      ],
      "orientation_vector": [
        0.0,
        -1.0
      ],
      "half_bracket_size": 0.5001001599500253,
      "bond": [
        11,
        59
      ],
      "fragment": "F5",
      "backbone": true,
      "suspended_anchor_atom": null,
      "suspended_reason": null,
      "source_label": "F5/fragments[0]",
      "marker_id": "4",
      "side": "right",
      "connection_group": "<1",
      "marker_type_index": 3
    },
    {
      "id": 14,
      "bracket_kind": "backbone",
      "pairing_id": "F2/fragments[0]",
      "group_id": "<1:3",
      "ru_midpoint": [
        -13.422713724000097,
        -0.11539722150056575
      ],
      "bond_midpoint": [
        -14.721784468996223,
        -0.19873271320295843
      ],
      "orientation_vector": [
        0.0,
        -1.0
      ],
      "half_bracket_size": 0.49990016001536197,
      "bond": [
        5,
        34
      ],
      "fragment": "F2",
      "backbone": true,
      "suspended_anchor_atom": null,
      "suspended_reason": null,
      "source_label": "F2/fragments[0]",
      "marker_id": "0",
      "side": "left",
      "connection_group": "<1",
      "marker_type_index": 3
    },
    {
      "id": 15,
      "bracket_kind": "backbone",
      "pairing_id": "F2/fragments[0]",
      "group_id": ">1:4",
      "ru_midpoint": [
        -13.422713724000097,
        -0.11539722150056575
      ],
      "bond_midpoint": [
        -12.123591794381886,
        -0.1987059168178022
      ],
      "orientation_vector": [
        0.0,
        -1.0
      ],
      "half_bracket_size": 0.49990016001536197,
      "bond": [
        6,
        36
      ],
      "fragment": "F2",
      "backbone": true,
      "suspended_anchor_atom": null,
      "suspended_reason": null,
      "source_label": "F2/fragments[0]",
      "marker_id": "4",
      "side": "right",
      "connection_group": ">1",
      "marker_type_index": 4
    },
    {
      "id": 16,
      "bracket_kind": "pendant",
      "pairing_id": "F1/substituted",
      "group_id": "<1:3",
      "ru_midpoint": [
        -1.4208817627227297,
        -0.2155783573293532
      ],
      "bond_midpoint": [
        -7.360271108728732,
        0.8015327264037619
      ],
      "orientation_vector": [
        0.49993775674835933,
        -0.8660613369602747
      ],
      "half_bracket_size": 0.49996239858613417,
      "bond": [
        43,
        42
      ],
      "fragment": "F1",
      "backbone": false,
      "suspended_anchor_atom": null,
      "suspended_reason": null,
      "source_label": "F1/substituted",
      "marker_id": "3",
      "side": "left",
      "connection_group": "<1",
      "marker_type_index": 3
    },
    {
      "id": 17,
      "bracket_kind": "pendant",
      "pairing_id": "F1/substituted",
      "group_id": "<1:3",
      "ru_midpoint": [
        -2.6566463522351746,
        -0.3456708267149763
      ],
      "bond_midpoint": [
        -7.360271108728733,
        -1.1984237909704993
      ],
      "orientation_vector": [
        0.49993775674835994,
        -0.8660613369602743
      ],
      "half_bracket_size": 0.49996239858613417,
      "bond": [
        53,
        52
      ],
      "fragment": "F1",
      "backbone": false,
      "suspended_anchor_atom": null,
      "suspended_reason": null,
      "source_label": "F1/substituted",
      "marker_id": "3@63-64",
      "side": "left",
      "connection_group": "<1",
      "marker_type_index": 3
    },
    {
      "id": 18,
      "bracket_kind": "pendant",
      "pairing_id": "F1/substituted",
      "group_id": ">1:4",
      "ru_midpoint": [
        -1.1194810009952665,
        -0.5392585604147091
      ],
      "bond_midpoint": [
        11.690865586925186,
        -1.198545533915521
      ],
      "orientation_vector": [
        0.5000279406888736,
        -0.8660092716192156
      ],
      "half_bracket_size": 0.49997305927419705,
      "bond": [
        72,
        70
      ],
      "fragment": "F1",
      "backbone": false,
      "suspended_anchor_atom": null,
      "suspended_reason": null,
      "source_label": "F1/substituted",
      "marker_id": "4",
      "side": "right",
      "connection_group": ">1",
      "marker_type_index": 4
    },
    {
      "id": 19,
      "bracket_kind": "pendant",
      "pairing_id": "F1/substituted",
      "group_id": ">1:4",
      "ru_midpoint": [
        0.016692703459610242,
        -0.3779782117457037
      ],
      "bond_midpoint": [
        11.690865586925186,
        0.8014112627447623
      ],
      "orientation_vector": [
        0.5000279406888736,
        -0.8660092716192156
      ],
      "half_bracket_size": 0.49997305927419705,
      "bond": [
        85,
        83
      ],
      "fragment": "F1",
      "backbone": false,
      "suspended_anchor_atom": null,
      "suspended_reason": null,
      "source_label": "F1/substituted",
      "marker_id": "4@86-88",
      "side": "right",
      "connection_group": ">1",
      "marker_type_index": 4
    },
    {
      "id": 20,
      "bracket_kind": "backbone",
      "pairing_id": "F1/mergedFragments[0]/subMolblock/native-outer",
      "group_id": "$overall",
      "ru_midpoint": [
        -2.7073605053039342,
        -0.06189242833572102
      ],
      "bond_midpoint": [
        -18.185822484471814,
        -0.19865151160212607
      ],
      "orientation_vector": [
        0.0,
        1.0
      ],
      "half_bracket_size": 0.5501101759450279,
      "bond": [
        0,
        2
      ],
      "fragment": "F1",
      "backbone": true,
      "suspended_anchor_atom": null,
      "suspended_reason": null,
      "source_label": "F1/mergedFragments[0]/subMolblock",
      "marker_id": "native-outer-left",
      "side": "left",
      "connection_group": "$overall",
      "marker_type_index": null
    },
    {
      "id": 21,
      "bracket_kind": "backbone",
      "pairing_id": "F1/mergedFragments[0]/subMolblock/native-outer",
      "group_id": "$overall",
      "ru_midpoint": [
        -2.7073605053039342,
        -0.06189242833572102
      ],
      "bond_midpoint": [
        18.185423616111347,
        -0.19865151160212735
      ],
      "orientation_vector": [
        0.0,
        1.0
      ],
      "half_bracket_size": 0.5501101759450279,
      "bond": [
        1,
        32
      ],
      "fragment": "F1",
      "backbone": true,
      "suspended_anchor_atom": null,
      "suspended_reason": null,
      "source_label": "F1/mergedFragments[0]/subMolblock",
      "marker_id": "native-outer-right",
      "side": "right",
      "connection_group": "$overall",
      "marker_type_index": null
    }
  ]
}
