
     RDKit          2D

  0  0  0  0  0  0  0  0  0  0999 V3000
M  V30 BEGIN CTAB
M  V30 COUNTS 118 117 12 0 0
M  V30 BEGIN ATOM
M  V30 1 N 5.623085 3.004300 0.000000 0
M  V30 2 C 4.757144 3.504273 0.000000 0
M  V30 3 C 3.891101 3.004300 0.000000 0
M  V30 4 N 3.025043 3.504273 0.000000 0
M  V30 5 C 5.623085 2.004354 0.000000 0
M  V30 6 C 6.488962 1.504269 0.000000 0
M  V30 7 N 6.488962 0.504323 0.000000 0
M  V30 8 C 6.489128 3.504273 0.000000 0
M  V30 9 C 7.355186 3.004300 0.000000 0
M  V30 10 N 8.221229 3.504273 0.000000 0
M  V30 11 C 2.159000 3.004300 0.000000 0
M  V30 12 C 1.293175 3.504150 0.000000 0
M  V30 13 C 0.427000 3.004300 0.000000 0
M  V30 14 O 0.426898 2.004300 0.000000 0
M  V30 15 H -6.500741 3.004293 0.000000 0
M  V30 16 N -0.439029 3.504294 0.000000 0
M  V30 17 C -1.304992 3.004293 0.000000 0
M  V30 18 C -2.170917 3.504294 0.000000 0
M  V30 19 N -3.037080 3.004293 0.000000 0
M  V30 20 C -3.037080 2.004379 0.000000 0
M  V30 21 C -2.171175 1.504278 0.000000 0
M  V30 22 C -2.171348 0.504264 0.000000 0
M  V30 23 O -3.037426 0.004351 0.000000 0
M  V30 24 R -1.305270 0.004263 0.000000 4
M  V30 25 C -3.903107 3.504294 0.000000 0
M  V30 26 C -4.769148 3.004293 0.000000 0
M  V30 27 C -5.634945 3.504294 0.000000 0
M  V30 28 O -5.634883 4.504340 0.000000 0
M  V30 29 C 3.025043 2.504327 0.000000 0
M  V30 30 C 3.524893 1.638502 0.000000 0
M  V30 31 C 3.025043 0.772326 0.000000 0
M  V30 32 O 2.025043 0.772224 0.000000 0
M  V30 33 H 3.025036 -6.155414 0.000000 0
M  V30 34 N 3.525037 -0.093702 0.000000 0
M  V30 35 C 3.025036 -0.959665 0.000000 0
M  V30 36 C 3.525037 -1.825590 0.000000 0
M  V30 37 N 3.025036 -2.691753 0.000000 0
M  V30 38 C 2.025122 -2.691753 0.000000 0
M  V30 39 C 1.525021 -1.825848 0.000000 0
M  V30 40 C 0.525007 -1.826021 0.000000 0
M  V30 41 O 0.025094 -2.692099 0.000000 0
M  V30 42 R 0.025007 -0.959943 0.000000 4
M  V30 43 C 3.525037 -3.557780 0.000000 0
M  V30 44 C 3.025036 -4.423821 0.000000 0
M  V30 45 C 3.525037 -5.289618 0.000000 0
M  V30 46 O 4.525083 -5.289556 0.000000 0
M  V30 47 C 7.355012 0.004338 0.000000 0
M  V30 48 C 8.220837 0.504188 0.000000 0
M  V30 49 C 9.087013 0.004338 0.000000 0
M  V30 50 O 9.087115 -0.995663 0.000000 0
M  V30 51 H 16.014753 0.004331 0.000000 0
M  V30 52 N 9.953042 0.504332 0.000000 0
M  V30 53 C 10.819004 0.004331 0.000000 0
M  V30 54 C 11.684930 0.504332 0.000000 0
M  V30 55 N 12.551092 0.004331 0.000000 0
M  V30 56 C 12.551092 -0.995583 0.000000 0
M  V30 57 C 11.685188 -1.495684 0.000000 0
M  V30 58 C 11.685361 -2.495698 0.000000 0
M  V30 59 O 12.551438 -2.995611 0.000000 0
M  V30 60 R 10.819283 -2.995699 0.000000 4
M  V30 61 C 13.417120 0.504332 0.000000 0
M  V30 62 C 14.283161 0.004331 0.000000 0
M  V30 63 C 15.148957 0.504332 0.000000 0
M  V30 64 O 15.148896 1.504377 0.000000 0
M  V30 65 C 5.622912 0.004362 0.000000 0
M  V30 66 C 4.757087 0.504212 0.000000 0
M  V30 67 C 3.890911 0.004362 0.000000 0
M  V30 68 O 3.890809 -0.995638 0.000000 0
M  V30 69 H -3.036829 0.004355 0.000000 0
M  V30 70 N 3.024882 0.504356 0.000000 0
M  V30 71 C 2.158920 0.004355 0.000000 0
M  V30 72 C 1.292995 0.504356 0.000000 0
M  V30 73 N 0.426832 0.004355 0.000000 0
M  V30 74 C 0.426832 -0.995559 0.000000 0
M  V30 75 C 1.292737 -1.495660 0.000000 0
M  V30 76 C 1.292564 -2.495674 0.000000 0
M  V30 77 O 0.426486 -2.995587 0.000000 0
M  V30 78 R 2.158641 -2.995675 0.000000 4
M  V30 79 C -0.439195 0.504356 0.000000 0
M  V30 80 C -1.305237 0.004355 0.000000 0
M  V30 81 C -2.171033 0.504356 0.000000 0
M  V30 82 O -2.170972 1.504402 0.000000 0
M  V30 83 C 8.221229 2.504359 0.000000 0
M  V30 84 C 8.721079 1.638534 0.000000 0
M  V30 85 C 8.221229 0.772359 0.000000 0
M  V30 86 O 7.221229 0.772257 0.000000 0
M  V30 87 H 8.221222 -6.155381 0.000000 0
M  V30 88 N 8.721223 -0.093670 0.000000 0
M  V30 89 C 8.221222 -0.959633 0.000000 0
M  V30 90 C 8.721223 -1.825558 0.000000 0
M  V30 91 N 8.221222 -2.691721 0.000000 0
M  V30 92 C 7.221308 -2.691721 0.000000 0
M  V30 93 C 6.721207 -1.825816 0.000000 0
M  V30 94 C 5.721193 -1.825989 0.000000 0
M  V30 95 O 5.221280 -2.692067 0.000000 0
M  V30 96 R 5.221192 -0.959911 0.000000 4
M  V30 97 C 8.721223 -3.557748 0.000000 0
M  V30 98 C 8.221222 -4.423789 0.000000 0
M  V30 99 C 8.721223 -5.289585 0.000000 0
M  V30 100 O 9.721269 -5.289524 0.000000 0
M  V30 101 C 9.087208 3.004300 0.000000 0
M  V30 102 C 9.953033 3.504150 0.000000 0
M  V30 103 C 10.819208 3.004300 0.000000 0
M  V30 104 O 10.819310 2.004300 0.000000 0
M  V30 105 H 17.746948 3.004293 0.000000 0
M  V30 106 N 11.685237 3.504294 0.000000 0
M  V30 107 C 12.551200 3.004293 0.000000 0
M  V30 108 C 13.417125 3.504294 0.000000 0
M  V30 109 N 14.283288 3.004293 0.000000 0
M  V30 110 C 14.283288 2.004379 0.000000 0
M  V30 111 C 13.417383 1.504278 0.000000 0
M  V30 112 C 13.417556 0.504264 0.000000 0
M  V30 113 O 14.283634 0.004351 0.000000 0
M  V30 114 R 12.551478 0.004263 0.000000 4
M  V30 115 C 15.149315 3.504294 0.000000 0
M  V30 116 C 16.015356 3.004293 0.000000 0
M  V30 117 C 16.881152 3.504294 0.000000 0
M  V30 118 O 16.881091 4.504340 0.000000 0
M  V30 END ATOM
M  V30 BEGIN BOND
M  V30 1 1 1 2
M  V30 2 1 2 3
M  V30 3 1 3 4
M  V30 4 1 1 5
M  V30 5 1 5 6
M  V30 6 1 6 7
M  V30 7 1 1 8
M  V30 8 1 8 9
M  V30 9 1 9 10
M  V30 10 1 11 12
M  V30 11 1 12 13
M  V30 12 2 13 14
M  V30 13 1 16 17
M  V30 14 1 17 18
M  V30 15 1 18 19
M  V30 16 1 19 20
M  V30 17 1 20 21
M  V30 18 1 21 22
M  V30 19 2 22 23
M  V30 20 1 22 24
M  V30 21 1 19 25
M  V30 22 1 25 26
M  V30 23 1 26 27
M  V30 24 2 27 28
M  V30 25 1 13 16
M  V30 26 1 15 27
M  V30 27 1 4 11
M  V30 28 1 29 30
M  V30 29 1 30 31
M  V30 30 2 31 32
M  V30 31 1 34 35
M  V30 32 1 35 36
M  V30 33 1 36 37
M  V30 34 1 37 38
M  V30 35 1 38 39
M  V30 36 1 39 40
M  V30 37 2 40 41
M  V30 38 1 40 42
M  V30 39 1 37 43
M  V30 40 1 43 44
M  V30 41 1 44 45
M  V30 42 2 45 46
M  V30 43 1 31 34
M  V30 44 1 33 45
M  V30 45 1 4 29
M  V30 46 1 47 48
M  V30 47 1 48 49
M  V30 48 2 49 50
M  V30 49 1 52 53
M  V30 50 1 53 54
M  V30 51 1 54 55
M  V30 52 1 55 56
M  V30 53 1 56 57
M  V30 54 1 57 58
M  V30 55 2 58 59
M  V30 56 1 58 60
M  V30 57 1 55 61
M  V30 58 1 61 62
M  V30 59 1 62 63
M  V30 60 2 63 64
M  V30 61 1 49 52
M  V30 62 1 51 63
M  V30 63 1 7 47
M  V30 64 1 65 66
M  V30 65 1 66 67
M  V30 66 2 67 68
M  V30 67 1 70 71
M  V30 68 1 71 72
M  V30 69 1 72 73
M  V30 70 1 73 74
M  V30 71 1 74 75
M  V30 72 1 75 76
M  V30 73 2 76 77
M  V30 74 1 76 78
M  V30 75 1 73 79
M  V30 76 1 79 80
M  V30 77 1 80 81
M  V30 78 2 81 82
M  V30 79 1 67 70
M  V30 80 1 69 81
M  V30 81 1 7 65
M  V30 82 1 83 84
M  V30 83 1 84 85
M  V30 84 2 85 86
M  V30 85 1 88 89
M  V30 86 1 89 90
M  V30 87 1 90 91
M  V30 88 1 91 92
M  V30 89 1 92 93
M  V30 90 1 93 94
M  V30 91 2 94 95
M  V30 92 1 94 96
M  V30 93 1 91 97
M  V30 94 1 97 98
M  V30 95 1 98 99
M  V30 96 2 99 100
M  V30 97 1 85 88
M  V30 98 1 87 99
M  V30 99 1 10 83
M  V30 100 1 101 102
M  V30 101 1 102 103
M  V30 102 2 103 104
M  V30 103 1 106 107
M  V30 104 1 107 108
M  V30 105 1 108 109
M  V30 106 1 109 110
M  V30 107 1 110 111
M  V30 108 1 111 112
M  V30 109 2 112 113
M  V30 110 1 112 114
M  V30 111 1 109 115
M  V30 112 1 115 116
M  V30 113 1 116 117
M  V30 114 2 117 118
M  V30 115 1 103 106
M  V30 116 1 105 117
M  V30 117 1 10 101
M  V30 END BOND
M  V30 BEGIN SGROUP
M  V30 1 SRU 0 ATOMS=(4 49 51 52 63) CBONDS=(2 61 62) -
M  V30 BRKXYZ=(9 9.5200 0.7543 0 9.5200 -0.2457 0 0 0 0) BRKXYZ=(9 15.5819 0.7-
M  V30 543 0 15.5819 -0.2457 0 0 0 0)
M  V30 2 SRU 0 ATOMS=(4 31 33 34 45) CBONDS=(2 43 44) -
M  V30 BRKXYZ=(9 3.7750 0.3393 0 2.7750 0.3393 0 0 0 0) BRKXYZ=(9 3.7750 -5.72-
M  V30 25 0 2.7750 -5.7225 0 0 0 0)
M  V30 3 SRU 0 ATOMS=(4 13 15 16 27) CBONDS=(2 25 26) -
M  V30 BRKXYZ=(9 -0.0060 3.7543 0 -0.0060 2.7543 0 0 0 0) BRKXYZ=(9 -6.0678 3.-
M  V30 7543 0 -6.0678 2.7543 0 0 0 0)
M  V30 4 SRU 0 ATOMS=(4 103 105 106 117) CBONDS=(2 115 116) -
M  V30 BRKXYZ=(9 11.2522 3.7543 0 11.2522 2.7543 0 0 0 0) BRKXYZ=(9 17.3141 3.-
M  V30 7543 0 17.3141 2.7543 0 0 0 0)
M  V30 5 SRU 0 ATOMS=(4 85 87 88 99) CBONDS=(2 97 98) -
M  V30 BRKXYZ=(9 8.9712 0.3393 0 7.9712 0.3393 0 0 0 0) BRKXYZ=(9 8.9712 -5.72-
M  V30 25 0 7.9712 -5.7225 0 0 0 0)
M  V30 6 SRU 0 ATOMS=(4 67 69 70 81) CBONDS=(2 79 80) -
M  V30 BRKXYZ=(9 3.4579 0.7544 0 3.4579 -0.2456 0 0 0 0) BRKXYZ=(9 -2.6039 0.7-
M  V30 544 0 -2.6039 -0.2456 0 0 0 0)
M  V30 7 SRU 0 ATOMS=(2 58 60) CBONDS=(1 56) -
M  V30 BRKXYZ=(9 11.5023 -3.1787 0 11.0023 -2.3127 0 0 0 0)
M  V30 8 SRU 0 ATOMS=(2 40 42) CBONDS=(1 38) -
M  V30 BRKXYZ=(9 -0.1580 -1.6430 0 0.7080 -1.1430 0 0 0 0)
M  V30 9 SRU 0 ATOMS=(2 22 24) CBONDS=(1 20) -
M  V30 BRKXYZ=(9 -1.9883 -0.1788 0 -1.4883 0.6873 0 0 0 0)
M  V30 10 SRU 0 ATOMS=(2 112 114) CBONDS=(1 110) -
M  V30 BRKXYZ=(9 13.2345 -0.1788 0 12.7345 0.6873 0 0 0 0)
M  V30 11 SRU 0 ATOMS=(2 94 96) CBONDS=(1 92) -
M  V30 BRKXYZ=(9 5.0382 -1.6430 0 5.9042 -1.1429 0 0 0 0)
M  V30 12 SRU 0 ATOMS=(2 76 78) CBONDS=(1 74) -
M  V30 BRKXYZ=(9 1.4756 -3.1787 0 1.9756 -2.3126 0 0 0 0)
M  V30 END SGROUP
M  V30 END CTAB
M  END
>  <BIGSMILES_BRACKET_RECORDS_JSON>
{
  "records": [
    {
      "id": 0,
      "bracket_kind": "backbone",
      "pairing_id": "F9/fragments[0]",
      "group_id": "<1:3",
      "ru_midpoint": [
        12.550684675514887,
        0.22654277399934275
      ],
      "bond_midpoint": [
        9.520027248658156,
        0.25433472697612763
      ],
      "orientation_vector": [
        0.0,
        1.0
      ],
      "half_bracket_size": 0.5000009984575862,
      "bond": [
        48,
        51
      ],
      "fragment": "F9",
      "backbone": true,
      "suspended_anchor_atom": null,
      "suspended_reason": null,
      "source_label": "F9/fragments[0]",
      "marker_id": "0",
      "side": "left",
      "connection_group": "<1",
      "marker_type_index": 3
    },
    {
      "id": 1,
      "bracket_kind": "backbone",
      "pairing_id": "F9/fragments[0]",
      "group_id": ">1:4",
      "ru_midpoint": [
        12.550684675514887,
        0.22654277399934275
      ],
      "bond_midpoint": [
        15.581854975013105,
        0.2543311970438423
      ],
      "orientation_vector": [
        0.0,
        1.0
      ],
      "half_bracket_size": 0.5000009984575862,
      "bond": [
        50,
        62
      ],
      "fragment": "F9",
      "backbone": true,
      "suspended_anchor_atom": null,
      "suspended_reason": null,
      "source_label": "F9/fragments[0]",
      "marker_id": "14",
      "side": "right",
      "connection_group": ">1",
      "marker_type_index": 4
    },
    {
      "id": 2,
      "bracket_kind": "pendant",
      "pairing_id": "F9/fragments[0]",
      "group_id": ">1:4",
      "ru_midpoint": [
        12.550684675514887,
        0.22654277399934275
      ],
      "bond_midpoint": [
        11.252321637824853,
        -2.7456985199266906
      ],
      "orientation_vector": [
        0.49997778345754523,
        -0.8660382301312569
      ],
      "half_bracket_size": 0.5000228894760721,
      "bond": [
        57,
        59
      ],
      "fragment": "F9",
      "backbone": false,
      "suspended_anchor_atom": null,
      "suspended_reason": null,
      "source_label": "F9/fragments[0]",
      "marker_id": "9",
      "side": "right",
      "connection_group": ">1",
      "marker_type_index": 4
    },
    {
      "id": 3,
      "bracket_kind": "backbone",
      "pairing_id": "F8/fragments[0]",
      "group_id": "<1:3",
      "ru_midpoint": [
        3.2472518130978147,
        -2.6914617826772336
      ],
      "bond_midpoint": [
        3.2750402361423148,
        0.3393120011460642
      ],
      "orientation_vector": [
        1.0,
        0.0
      ],
      "half_bracket_size": 0.5000009984575862,
      "bond": [
        30,
        33
      ],
      "fragment": "F8",
      "backbone": true,
      "suspended_anchor_atom": null,
      "suspended_reason": null,
      "source_label": "F8/fragments[0]",
      "marker_id": "0",
      "side": "left",
      "connection_group": "<1",
      "marker_type_index": 3
    },
    {
      "id": 4,
      "bracket_kind": "backbone",
      "pairing_id": "F8/fragments[0]",
      "group_id": ">1:4",
      "ru_midpoint": [
        3.2472518130978147,
        -2.6914617826772336
      ],
      "bond_midpoint": [
        3.2750367062100283,
        -5.7225157252088845
      ],
      "orientation_vector": [
        1.0,
        0.0
      ],
      "half_bracket_size": 0.5000009984575862,
      "bond": [
        32,
        44
      ],
      "fragment": "F8",
      "backbone": true,
      "suspended_anchor_atom": null,
      "suspended_reason": null,
      "source_label": "F8/fragments[0]",
      "marker_id": "14",
      "side": "right",
      "connection_group": ">1",
      "marker_type_index": 4
    },
    {
      "id": 5,
      "bracket_kind": "pendant",
      "pairing_id": "F8/fragments[0]",
      "group_id": ">1:4",
      "ru_midpoint": [
        3.2472518130978147,
        -2.6914617826772336
      ],
      "bond_midpoint": [
        0.2750069892394962,
        -1.3929823880206327
      ],
      "orientation_vector": [
        -0.866038230131257,
        -0.49997778345754507
      ],
      "half_bracket_size": 0.5000228894760721,
      "bond": [
        39,
        41
      ],
      "fragment": "F8",
      "backbone": false,
      "suspended_anchor_atom": null,
      "suspended_reason": null,
      "source_label": "F8/fragments[0]",
      "marker_id": "9",
      "side": "right",
      "connection_group": ">1",
      "marker_type_index": 4
    },
    {
      "id": 6,
      "bracket_kind": "backbone",
      "pairing_id": "F7/fragments[0]",
      "group_id": "<1:3",
      "ru_midpoint": [
        -3.036905080320642,
        3.2265120761842927
      ],
      "bond_midpoint": [
        -0.006014939530774699,
        3.2542969692965067
      ],
      "orientation_vector": [
        0.0,
        1.0
      ],
      "half_bracket_size": 0.5000009984575862,
      "bond": [
        12,
        15
      ],
      "fragment": "F7",
      "backbone": true,
      "suspended_anchor_atom": null,
      "suspended_reason": null,
      "source_label": "F7/fragments[0]",
      "marker_id": "0",
      "side": "left",
      "connection_group": "<1",
      "marker_type_index": 3
    },
    {
      "id": 7,
      "bracket_kind": "backbone",
      "pairing_id": "F7/fragments[0]",
      "group_id": ">1:4",
      "ru_midpoint": [
        -3.036905080320642,
        3.2265120761842927
      ],
      "bond_midpoint": [
        -6.067842665885722,
        3.254293439364221
      ],
      "orientation_vector": [
        0.0,
        1.0
      ],
      "half_bracket_size": 0.5000009984575862,
      "bond": [
        14,
        26
      ],
      "fragment": "F7",
      "backbone": true,
      "suspended_anchor_atom": null,
      "suspended_reason": null,
      "source_label": "F7/fragments[0]",
      "marker_id": "14",
      "side": "right",
      "connection_group": ">1",
      "marker_type_index": 4
    },
    {
      "id": 8,
      "bracket_kind": "pendant",
      "pairing_id": "F7/fragments[0]",
      "group_id": ">1:4",
      "ru_midpoint": [
        -3.036905080320642,
        3.2265120761842927
      ],
      "bond_midpoint": [
        -1.738309328697472,
        0.25426372239368833
      ],
      "orientation_vector": [
        -0.49997778345754523,
        -0.8660382301312569
      ],
      "half_bracket_size": 0.5000228894760721,
      "bond": [
        21,
        23
      ],
      "fragment": "F7",
      "backbone": false,
      "suspended_anchor_atom": null,
      "suspended_reason": null,
      "source_label": "F7/fragments[0]",
      "marker_id": "9",
      "side": "right",
      "connection_group": ">1",
      "marker_type_index": 4
    },
    {
      "id": 9,
      "bracket_kind": "backbone",
      "pairing_id": "F12/fragments[0]",
      "group_id": "<1:3",
      "ru_midpoint": [
        14.282531022080999,
        3.226494426522865
      ],
      "bond_midpoint": [
        11.252222666123973,
        3.2542969692965062
      ],
      "orientation_vector": [
        0.0,
        1.0
      ],
      "half_bracket_size": 0.5000009984575862,
      "bond": [
        102,
        105
      ],
      "fragment": "F12",
      "backbone": true,
      "suspended_anchor_atom": null,
      "suspended_reason": null,
      "source_label": "F12/fragments[0]",
      "marker_id": "0",
      "side": "left",
      "connection_group": "<1",
      "marker_type_index": 3
    },
    {
      "id": 10,
      "bracket_kind": "backbone",
      "pairing_id": "F12/fragments[0]",
      "group_id": ">1:4",
      "ru_midpoint": [
        14.282531022080999,
        3.226494426522865
      ],
      "bond_midpoint": [
        17.314050392478922,
        3.254293439364221
      ],
      "orientation_vector": [
        0.0,
        1.0
      ],
      "half_bracket_size": 0.5000009984575862,
      "bond": [
        104,
        116
      ],
      "fragment": "F12",
      "backbone": true,
      "suspended_anchor_atom": null,
      "suspended_reason": null,
      "source_label": "F12/fragments[0]",
      "marker_id": "14",
      "side": "right",
      "connection_group": ">1",
      "marker_type_index": 4
    },
    {
      "id": 11,
      "bracket_kind": "pendant",
      "pairing_id": "F12/fragments[0]",
      "group_id": ">1:4",
      "ru_midpoint": [
        14.282531022080999,
        3.226494426522865
      ],
      "bond_midpoint": [
        12.98451705529067,
        0.2542637223936879
      ],
      "orientation_vector": [
        0.49997778345754523,
        -0.8660382301312569
      ],
      "half_bracket_size": 0.5000228894760721,
      "bond": [
        111,
        113
      ],
      "fragment": "F12",
      "backbone": false,
      "suspended_anchor_atom": null,
      "suspended_reason": null,
      "source_label": "F12/fragments[0]",
      "marker_id": "9",
      "side": "right",
      "connection_group": ">1",
      "marker_type_index": 4
    },
    {
      "id": 12,
      "bracket_kind": "backbone",
      "pairing_id": "F11/fragments[0]",
      "group_id": "<1:3",
      "ru_midpoint": [
        8.443426941941523,
        -2.6910803695118695
      ],
      "bond_midpoint": [
        8.471225954782879,
        0.33934434341172315
      ],
      "orientation_vector": [
        1.0,
        0.0
      ],
      "half_bracket_size": 0.5000009984575862,
      "bond": [
        84,
        87
      ],
      "fragment": "F11",
      "backbone": true,
      "suspended_anchor_atom": null,
      "suspended_reason": null,
      "source_label": "F11/fragments[0]",
      "marker_id": "0",
      "side": "left",
      "connection_group": "<1",
      "marker_type_index": 3
    },
    {
      "id": 13,
      "bracket_kind": "backbone",
      "pairing_id": "F11/fragments[0]",
      "group_id": ">1:4",
      "ru_midpoint": [
        8.443426941941523,
        -2.6910803695118695
      ],
      "bond_midpoint": [
        8.471222424850593,
        -5.722483382943224
      ],
      "orientation_vector": [
        1.0,
        0.0
      ],
      "half_bracket_size": 0.5000009984575862,
      "bond": [
        86,
        98
      ],
      "fragment": "F11",
      "backbone": true,
      "suspended_anchor_atom": null,
      "suspended_reason": null,
      "source_label": "F11/fragments[0]",
      "marker_id": "14",
      "side": "right",
      "connection_group": ">1",
      "marker_type_index": 4
    },
    {
      "id": 14,
      "bracket_kind": "pendant",
      "pairing_id": "F11/fragments[0]",
      "group_id": ">1:4",
      "ru_midpoint": [
        8.443426941941523,
        -2.6910803695118695
      ],
      "bond_midpoint": [
        5.471192707880061,
        -1.3929500457549728
      ],
      "orientation_vector": [
        -0.866038230131257,
        -0.49997778345754507
      ],
      "half_bracket_size": 0.5000228894760721,
      "bond": [
        93,
        95
      ],
      "fragment": "F11",
      "backbone": false,
      "suspended_anchor_atom": null,
      "suspended_reason": null,
      "source_label": "F11/fragments[0]",
      "marker_id": "9",
      "side": "right",
      "connection_group": ">1",
      "marker_type_index": 4
    },
    {
      "id": 15,
      "bracket_kind": "backbone",
      "pairing_id": "F10/fragments[0]",
      "group_id": "<1:3",
      "ru_midpoint": [
        0.42735577161566685,
        0.2265634853732148
      ],
      "bond_midpoint": [
        3.4578968415058284,
        0.254358968282285
      ],
      "orientation_vector": [
        0.0,
        1.0
      ],
      "half_bracket_size": 0.5000009984575862,
      "bond": [
        66,
        69
      ],
      "fragment": "F10",
      "backbone": true,
      "suspended_anchor_atom": null,
      "suspended_reason": null,
      "source_label": "F10/fragments[0]",
      "marker_id": "0",
      "side": "left",
      "connection_group": "<1",
      "marker_type_index": 3
    },
    {
      "id": 16,
      "bracket_kind": "backbone",
      "pairing_id": "F10/fragments[0]",
      "group_id": ">1:4",
      "ru_midpoint": [
        0.42735577161566685,
        0.2265634853732148
      ],
      "bond_midpoint": [
        -2.6039308848491194,
        0.25435543834999974
      ],
      "orientation_vector": [
        0.0,
        1.0
      ],
      "half_bracket_size": 0.5000009984575862,
      "bond": [
        68,
        80
      ],
      "fragment": "F10",
      "backbone": true,
      "suspended_anchor_atom": null,
      "suspended_reason": null,
      "source_label": "F10/fragments[0]",
      "marker_id": "14",
      "side": "right",
      "connection_group": ">1",
      "marker_type_index": 4
    },
    {
      "id": 17,
      "bracket_kind": "pendant",
      "pairing_id": "F10/fragments[0]",
      "group_id": ">1:4",
      "ru_midpoint": [
        0.42735577161566685,
        0.2265634853732148
      ],
      "bond_midpoint": [
        1.7256024523391313,
        -2.7456742786205335
      ],
      "orientation_vector": [
        -0.49997778345754523,
        -0.8660382301312569
      ],
      "half_bracket_size": 0.5000228894760721,
      "bond": [
        75,
        77
      ],
      "fragment": "F10",
      "backbone": false,
      "suspended_anchor_atom": null,
      "suspended_reason": null,
      "source_label": "F10/fragments[0]",
      "marker_id": "9",
      "side": "right",
      "connection_group": ">1",
      "marker_type_index": 4
    }
  ]
}
