
     RDKit          2D

  0  0  0  0  0  0  0  0  0  0999 V3000
M  V30 BEGIN CTAB
M  V30 COUNTS 30 29 8 0 0
M  V30 BEGIN ATOM
M  V30 1 N 3.897196 -0.853688 0.000000 0
M  V30 2 C 4.763201 -1.353788 0.000000 0
M  V30 3 C 5.629197 -0.853688 0.000000 0
M  V30 4 C 6.495201 -1.353788 0.000000 0
M  V30 5 C 7.361197 -0.853688 0.000000 0
M  V30 6 N 8.227202 -1.353788 0.000000 0
M  V30 7 H -0.432578 -1.353788 0.000000 0
M  V30 8 C 3.031200 -1.353788 0.000000 0
M  V30 9 C 2.165195 -0.853688 0.000000 0
M  V30 10 C 1.299199 -1.353788 0.000000 0
M  V30 11 N 0.433311 -0.853688 0.000000 0
M  V30 12 R 0.433311 0.146237 0.000000 4
M  V30 13 H 3.897196 3.610091 0.000000 0
M  V30 14 C 3.897196 0.146312 0.000000 0
M  V30 15 C 3.397096 1.012317 0.000000 0
M  V30 16 C 3.897196 1.878313 0.000000 0
M  V30 17 N 3.397096 2.744202 0.000000 0
M  V30 18 R 2.397171 2.744202 0.000000 4
M  V30 19 H 8.227202 3.109990 0.000000 0
M  V30 20 C 8.227202 -0.353788 0.000000 0
M  V30 21 C 7.727102 0.512217 0.000000 0
M  V30 22 C 8.227202 1.378213 0.000000 0
M  V30 23 N 7.727102 2.244101 0.000000 0
M  V30 24 R 6.727177 2.244101 0.000000 4
M  V30 25 H 12.556948 -0.853688 0.000000 0
M  V30 26 C 9.093170 -0.853688 0.000000 0
M  V30 27 C 9.959174 -1.353788 0.000000 0
M  V30 28 C 10.825170 -0.853688 0.000000 0
M  V30 29 N 11.691059 -1.353788 0.000000 0
M  V30 30 R 11.691059 -2.353713 0.000000 4
M  V30 END ATOM
M  V30 BEGIN BOND
M  V30 1 1 1 2
M  V30 2 1 2 3
M  V30 3 1 3 4
M  V30 4 1 4 5
M  V30 5 1 5 6
M  V30 6 1 8 9
M  V30 7 1 9 10
M  V30 8 1 10 11
M  V30 9 1 11 12
M  V30 10 1 7 11
M  V30 11 1 1 8
M  V30 12 1 14 15
M  V30 13 1 15 16
M  V30 14 1 16 17
M  V30 15 1 17 18
M  V30 16 1 13 17
M  V30 17 1 1 14
M  V30 18 1 20 21
M  V30 19 1 21 22
M  V30 20 1 22 23
M  V30 21 1 23 24
M  V30 22 1 19 23
M  V30 23 1 6 20
M  V30 24 1 26 27
M  V30 25 1 27 28
M  V30 26 1 28 29
M  V30 27 1 29 30
M  V30 28 1 25 29
M  V30 29 1 6 26
M  V30 END BOND
M  V30 BEGIN SGROUP
M  V30 1 SRU 0 ATOMS=(4 6 25 26 29) CBONDS=(2 28 29) -
M  V30 BRKXYZ=(9 8.6602 -1.6038 0 8.6602 -0.6036 0 0 0 0) BRKXYZ=(9 12.1240 -0-
M  V30 .6036 0 12.1240 -1.6038 0 0 0 0)
M  V30 2 SRU 0 ATOMS=(4 6 19 20 23) CBONDS=(2 22 23) -
M  V30 BRKXYZ=(9 8.7273 -0.8538 0 7.7271 -0.8538 0 0 0 0) BRKXYZ=(9 8.4773 2.6-
M  V30 770 0 7.4771 2.6770 0 0 0 0)
M  V30 3 SRU 0 ATOMS=(4 1 13 14 17) CBONDS=(2 16 17) -
M  V30 BRKXYZ=(9 4.3973 -0.3537 0 3.3971 -0.3537 0 0 0 0) BRKXYZ=(9 4.1472 3.1-
M  V30 771 0 3.1470 3.1771 0 0 0 0)
M  V30 4 SRU 0 ATOMS=(4 1 7 8 11) CBONDS=(2 10 11) -
M  V30 BRKXYZ=(9 3.4642 -0.6036 0 3.4642 -1.6038 0 0 0 0) BRKXYZ=(9 0.0004 -1.-
M  V30 6038 0 0.0004 -0.6036 0 0 0 0)
M  V30 5 SRU 0 ATOMS=(2 29 30) CBONDS=(1 27) -
M  V30 BRKXYZ=(9 12.1910 -1.8538 0 11.1911 -1.8538 0 0 0 0)
M  V30 6 SRU 0 ATOMS=(2 23 24) CBONDS=(1 21) -
M  V30 BRKXYZ=(9 7.2271 2.7441 0 7.2271 1.7441 0 0 0 0)
M  V30 7 SRU 0 ATOMS=(2 17 18) CBONDS=(1 15) -
M  V30 BRKXYZ=(9 2.8971 3.2442 0 2.8971 2.2442 0 0 0 0)
M  V30 8 SRU 0 ATOMS=(2 11 12) CBONDS=(1 9) -
M  V30 BRKXYZ=(9 -0.0667 -0.3537 0 0.9333 -0.3537 0 0 0 0)
M  V30 END SGROUP
M  V30 END CTAB
M  END
>  <BIGSMILES_BRACKET_RECORDS_JSON>
{
  "records": [
    {
      "id": 0,
      "bracket_kind": "backbone",
      "pairing_id": "F8/fragments[0]",
      "group_id": "<1:3",
      "ru_midpoint": [
        10.391971382011906,
        -1.1037375713848812
      ],
      "bond_midpoint": [
        8.660185666567276,
        -1.1037378914488296
      ],
      "orientation_vector": [
        0.0,
        -1.0
      ],
      "half_bracket_size": 0.5001001599500249,
      "bond": [
        5,
        25
      ],
      "fragment": "F8",
      "backbone": true,
      "suspended_anchor_atom": null,
      "suspended_reason": null,
      "source_label": "F8/fragments[0]",
      "marker_id": "0",
      "side": "left",
      "connection_group": "<1",
      "marker_type_index": 3
    },
    {
      "id": 1,
      "bracket_kind": "backbone",
      "pairing_id": "F8/fragments[0]",
      "group_id": ">1:4",
      "ru_midpoint": [
        10.391971382011906,
        -1.1037375713848812
      ],
      "bond_midpoint": [
        12.124003519338533,
        -1.1037378914488296
      ],
      "orientation_vector": [
        0.0,
        1.0
      ],
      "half_bracket_size": 0.5001001599500249,
      "bond": [
        24,
        28
      ],
      "fragment": "F8",
      "backbone": true,
      "suspended_anchor_atom": null,
      "suspended_reason": null,
      "source_label": "F8/fragments[0]",
      "marker_id": "6",
      "side": "right",
      "connection_group": ">1",
      "marker_type_index": 4
    },
    {
      "id": 2,
      "bracket_kind": "pendant",
      "pairing_id": "F8/fragments[0]",
      "group_id": ">1:4",
      "ru_midpoint": [
        10.391971382011906,
        -1.1037375713848812
      ],
      "bond_midpoint": [
        11.691059080057359,
        -1.8537503700099756
      ],
      "orientation_vector": [
        1.0,
        0.0
      ],
      "half_bracket_size": 0.4999623985861337,
      "bond": [
        28,
        29
      ],
      "fragment": "F8",
      "backbone": false,
      "suspended_anchor_atom": null,
      "suspended_reason": null,
      "source_label": "F8/fragments[0]",
      "marker_id": "5",
      "side": "right",
      "connection_group": ">1",
      "marker_type_index": 4
    },
    {
      "id": 3,
      "bracket_kind": "backbone",
      "pairing_id": "F7/fragments[0]",
      "group_id": "<1:3",
      "ru_midpoint": [
        7.977151937548244,
        0.9450137749128188
      ],
      "bond_midpoint": [
        8.227201697459307,
        -0.8537879714238423
      ],
      "orientation_vector": [
        1.0,
        0.0
      ],
      "half_bracket_size": 0.5001001599500249,
      "bond": [
        5,
        19
      ],
      "fragment": "F7",
      "backbone": true,
      "suspended_anchor_atom": null,
      "suspended_reason": null,
      "source_label": "F7/fragments[0]",
      "marker_id": "0",
      "side": "left",
      "connection_group": "<1",
      "marker_type_index": 3
    },
    {
      "id": 4,
      "bracket_kind": "backbone",
      "pairing_id": "F7/fragments[0]",
      "group_id": ">1:4",
      "ru_midpoint": [
        7.977151937548244,
        0.9450137749128188
      ],
      "bond_midpoint": [
        7.977151617484294,
        2.677045912239447
      ],
      "orientation_vector": [
        1.0,
        0.0
      ],
      "half_bracket_size": 0.5001001599500249,
      "bond": [
        18,
        22
      ],
      "fragment": "F7",
      "backbone": true,
      "suspended_anchor_atom": null,
      "suspended_reason": null,
      "source_label": "F7/fragments[0]",
      "marker_id": "6",
      "side": "right",
      "connection_group": ">1",
      "marker_type_index": 4
    },
    {
      "id": 5,
      "bracket_kind": "pendant",
      "pairing_id": "F7/fragments[0]",
      "group_id": ">1:4",
      "ru_midpoint": [
        7.977151937548244,
        0.9450137749128188
      ],
      "bond_midpoint": [
        7.227139138923148,
        2.244101472958273
      ],
      "orientation_vector": [
        0.0,
        1.0
      ],
      "half_bracket_size": 0.4999623985861337,
      "bond": [
        22,
        23
      ],
      "fragment": "F7",
      "backbone": false,
      "suspended_anchor_atom": null,
      "suspended_reason": null,
      "source_label": "F7/fragments[0]",
      "marker_id": "5",
      "side": "right",
      "connection_group": ">1",
      "marker_type_index": 4
    },
    {
      "id": 6,
      "bracket_kind": "backbone",
      "pairing_id": "F6/fragments[0]",
      "group_id": "<1:3",
      "ru_midpoint": [
        3.6471462851249163,
        1.4451139348628441
      ],
      "bond_midpoint": [
        3.8971960450359804,
        -0.35368781147381795
      ],
      "orientation_vector": [
        1.0,
        0.0
      ],
      "half_bracket_size": 0.5001001599500249,
      "bond": [
        0,
        13
      ],
      "fragment": "F6",
      "backbone": true,
      "suspended_anchor_atom": null,
      "suspended_reason": null,
      "source_label": "F6/fragments[0]",
      "marker_id": "0",
      "side": "left",
      "connection_group": "<1",
      "marker_type_index": 3
    },
    {
      "id": 7,
      "bracket_kind": "backbone",
      "pairing_id": "F6/fragments[0]",
      "group_id": ">1:4",
      "ru_midpoint": [
        3.6471462851249163,
        1.4451139348628441
      ],
      "bond_midpoint": [
        3.647145965060967,
        3.1771460721894726
      ],
      "orientation_vector": [
        1.0,
        0.0
      ],
      "half_bracket_size": 0.5001001599500249,
      "bond": [
        12,
        16
      ],
      "fragment": "F6",
      "backbone": true,
      "suspended_anchor_atom": null,
      "suspended_reason": null,
      "source_label": "F6/fragments[0]",
      "marker_id": "6",
      "side": "right",
      "connection_group": ">1",
      "marker_type_index": 4
    },
    {
      "id": 8,
      "bracket_kind": "pendant",
      "pairing_id": "F6/fragments[0]",
      "group_id": ">1:4",
      "ru_midpoint": [
        3.6471462851249163,
        1.4451139348628441
      ],
      "bond_midpoint": [
        2.8971334864998215,
        2.744201632908298
      ],
      "orientation_vector": [
        0.0,
        1.0
      ],
      "half_bracket_size": 0.4999623985861337,
      "bond": [
        16,
        17
      ],
      "fragment": "F6",
      "backbone": false,
      "suspended_anchor_atom": null,
      "suspended_reason": null,
      "source_label": "F6/fragments[0]",
      "marker_id": "5",
      "side": "right",
      "connection_group": ">1",
      "marker_type_index": 4
    },
    {
      "id": 9,
      "bracket_kind": "backbone",
      "pairing_id": "F5/fragments[0]",
      "group_id": "<1:3",
      "ru_midpoint": [
        1.7323982536633378,
        -1.103738211512779
      ],
      "bond_midpoint": [
        3.4641980225179902,
        -1.1037378914488305
      ],
      "orientation_vector": [
        0.0,
        1.0
      ],
      "half_bracket_size": 0.5001001599500249,
      "bond": [
        0,
        7
      ],
      "fragment": "F5",
      "backbone": true,
      "suspended_anchor_atom": null,
      "suspended_reason": null,
      "source_label": "F5/fragments[0]",
      "marker_id": "0",
      "side": "left",
      "connection_group": "<1",
      "marker_type_index": 3
    },
    {
      "id": 10,
      "bracket_kind": "backbone",
      "pairing_id": "F5/fragments[0]",
      "group_id": ">1:4",
      "ru_midpoint": [
        1.7323982536633378,
        -1.103738211512779
      ],
      "bond_midpoint": [
        0.0003661163367099096,
        -1.1037378914488305
      ],
      "orientation_vector": [
        0.0,
        -1.0
      ],
      "half_bracket_size": 0.5001001599500249,
      "bond": [
        6,
        10
      ],
      "fragment": "F5",
      "backbone": true,
      "suspended_anchor_atom": null,
      "suspended_reason": null,
      "source_label": "F5/fragments[0]",
      "marker_id": "6",
      "side": "right",
      "connection_group": ">1",
      "marker_type_index": 4
    },
    {
      "id": 11,
      "bracket_kind": "pendant",
      "pairing_id": "F5/fragments[0]",
      "group_id": ">1:4",
      "ru_midpoint": [
        1.7323982536633378,
        -1.103738211512779
      ],
      "bond_midpoint": [
        0.433310555617884,
        -0.35372541288768444
      ],
      "orientation_vector": [
        -1.0,
        0.0
      ],
      "half_bracket_size": 0.4999623985861337,
      "bond": [
        10,
        11
      ],
      "fragment": "F5",
      "backbone": false,
      "suspended_anchor_atom": null,
      "suspended_reason": null,
      "source_label": "F5/fragments[0]",
      "marker_id": "5",
      "side": "right",
      "connection_group": ">1",
      "marker_type_index": 4
    }
  ]
}
