
     RDKit          2D

  0  0  0  0  0  0  0  0  0  0999 V3000
M  V30 BEGIN CTAB
M  V30 COUNTS 6 5 2 0 0
M  V30 BEGIN ATOM
M  V30 1 H -1.732235 0.051350 0.000000 0
M  V30 2 H 1.731766 0.051350 0.000000 0
M  V30 3 C -0.866239 -0.448550 0.000000 0
M  V30 4 C -0.000243 0.051350 0.000000 0
M  V30 5 N 0.865761 -0.448550 0.000000 0
M  V30 6 R 0.865761 -1.448475 0.000000 4
M  V30 END ATOM
M  V30 BEGIN BOND
M  V30 1 1 3 4
M  V30 2 1 4 5
M  V30 3 1 5 6
M  V30 4 1 1 3
M  V30 5 1 2 5
M  V30 END BOND
M  V30 BEGIN SGROUP
M  V30 1 SRU 0 ATOMS=(4 1 2 3 5) CBONDS=(2 4 5) -
M  V30 BRKXYZ=(9 -1.2992 0.3013 0 -1.2992 -0.6985 0 0 0 0) BRKXYZ=(9 1.2988 0.-
M  V30 3013 0 1.2988 -0.6985 0 0 0 0)
M  V30 2 SRU 0 ATOMS=(2 5 6) CBONDS=(1 3) -
M  V30 BRKXYZ=(9 1.3657 -0.9485 0 0.3658 -0.9485 0 0 0 0)
M  V30 END SGROUP
M  V30 END CTAB
M  END
>  <BIGSMILES_BRACKET_RECORDS_JSON>
{
  "records": [
    {
      "id": 0,
      "bracket_kind": "backbone",
      "pairing_id": "F1/fragments[0]",
      "group_id": "<1:3",
      "ru_midpoint": [
        -0.00022976614313971466,
        -0.14862693735392568
      ],
      "bond_midpoint": [
        -1.2992373449955128,
        -0.1986
      ],
      "orientation_vector": [
        0.0,
        1.0
      ],
      "half_bracket_size": 0.4999001600153621,
      "bond": [
        0,
        2
      ],
      "fragment": "F1",
      "backbone": true,
      "suspended_anchor_atom": null,
      "suspended_reason": null,
      "source_label": "F1/fragments[0]",
      "marker_id": "0",
      "side": "left",
      "connection_group": "<1",
      "marker_type_index": 3
    },
    {
      "id": 1,
      "bracket_kind": "backbone",
      "pairing_id": "F1/fragments[0]",
      "group_id": ">1:4",
      "ru_midpoint": [
        -0.00022976614313971466,
        -0.14862693735392568
      ],
      "bond_midpoint": [
        1.2987635037341407,
        -0.19859999999999994
      ],
      "orientation_vector": [
        0.0,
        1.0
      ],
      "half_bracket_size": 0.4999001600153621,
      "bond": [
        1,
        4
      ],
      "fragment": "F1",
      "backbone": true,
      "suspended_anchor_atom": null,
      "suspended_reason": null,
      "source_label": "F1/fragments[0]",
      "marker_id": "5",
      "side": "right",
      "connection_group": ">1",
      "marker_type_index": 4
    },
    {
      "id": 2,
      "bracket_kind": "pendant",
      "pairing_id": "F1/fragments[0]",
      "group_id": ">1:4",
      "ru_midpoint": [
        -0.00022976614313971466,
        -0.14862693735392568
      ],
      "bond_midpoint": [
        0.8657613241736286,
        -0.9485124785938146
      ],
      "orientation_vector": [
        1.0,
        0.0
      ],
      "half_bracket_size": 0.4999623985861337,
      "bond": [
        4,
        5
      ],
      "fragment": "F1",
      "backbone": false,
      "suspended_anchor_atom": null,
      "suspended_reason": null,
      "source_label": "F1/fragments[0]",
      "marker_id": "4",
      "side": "right",
      "connection_group": ">1",
      "marker_type_index": 4
    }
  ]
}
