
     RDKit          2D

  0  0  0  0  0  0  0  0  0  0999 V3000
M  V30 BEGIN CTAB
M  V30 COUNTS 78 80 6 0 0
M  V30 BEGIN ATOM
M  V30 1 N 7.525638 -3.028979 0.000000 0
M  V30 2 C 10.391597 -2.528972 0.000000 0
M  V30 3 C 11.391597 -2.528972 0.000000 0
M  V30 4 C 11.891607 -1.662930 0.000000 0
M  V30 5 C 12.891626 -1.662930 0.000000 0
M  V30 6 C 11.891607 -3.395014 0.000000 0
M  V30 7 C 12.891626 -3.395014 0.000000 0
M  V30 8 C 13.391635 -2.528972 0.000000 0
M  V30 9 C 14.391635 -2.528972 0.000000 0
M  V30 10 N 17.123591 -2.529015 0.000000 0
M  V30 11 C 6.659642 -3.529079 0.000000 0
M  V30 12 C 5.793646 -3.029179 0.000000 0
M  V30 13 O -0.268302 -3.529267 0.000000 0
M  V30 14 O 4.927671 -3.529267 0.000000 0
M  V30 15 C 4.061667 -3.029167 0.000000 0
M  V30 16 O 4.061664 -2.029166 0.000000 0
M  V30 17 C 3.195671 -3.529267 0.000000 0
M  V30 18 C 3.195671 -4.529267 0.000000 0
M  V30 19 O 2.329666 -3.029167 0.000000 0
M  V30 20 C 1.463670 -3.529267 0.000000 0
M  V30 21 O 1.463672 -4.529267 0.000000 0
M  V30 22 C 0.597665 -3.029167 0.000000 0
M  V30 23 C 0.597665 -4.029191 0.000000 0
M  V30 24 C 7.525638 -2.028979 0.000000 0
M  V30 25 C 8.025538 -1.162983 0.000000 0
M  V30 26 O 7.525451 4.898965 0.000000 0
M  V30 27 O 7.525450 -0.297008 0.000000 0
M  V30 28 C 8.025551 0.568997 0.000000 0
M  V30 29 O 9.025551 0.568999 0.000000 0
M  V30 30 C 7.525450 1.434993 0.000000 0
M  V30 31 C 6.525450 1.434993 0.000000 0
M  V30 32 O 8.025551 2.300997 0.000000 0
M  V30 33 C 7.525450 3.166993 0.000000 0
M  V30 34 O 6.525450 3.166991 0.000000 0
M  V30 35 C 8.025551 4.032998 0.000000 0
M  V30 36 C 7.025526 4.032998 0.000000 0
M  V30 37 C 9.391597 -2.528972 0.000000 0
M  V30 38 C 8.525638 -3.028979 0.000000 0
M  V30 39 C 8.525638 -4.028981 0.000000 0
M  V30 40 C 9.391840 -4.528914 0.000000 0
M  V30 41 C 9.391640 -5.528916 0.000000 0
M  V30 42 C 8.525838 -6.028985 0.000000 0
M  V30 43 C 7.659636 -5.529052 0.000000 0
M  V30 44 C 7.659836 -4.529050 0.000000 0
M  V30 45 C 15.391635 -2.528972 0.000000 0
M  V30 46 C 16.257594 -2.028965 0.000000 0
M  V30 47 C 16.257594 -1.028963 0.000000 0
M  V30 48 C 15.391392 -0.529029 0.000000 0
M  V30 49 C 15.391592 0.470972 0.000000 0
M  V30 50 C 16.257394 0.971042 0.000000 0
M  V30 51 C 17.123596 0.471108 0.000000 0
M  V30 52 C 17.123396 -0.528893 0.000000 0
M  V30 53 C 17.123591 -1.529015 0.000000 0
M  V30 54 C 17.623491 -0.663019 0.000000 0
M  V30 55 O 17.123403 5.398929 0.000000 0
M  V30 56 O 17.123403 0.202956 0.000000 0
M  V30 57 C 17.623503 1.068961 0.000000 0
M  V30 58 O 18.623504 1.068963 0.000000 0
M  V30 59 C 17.123403 1.934957 0.000000 0
M  V30 60 C 16.123403 1.934957 0.000000 0
M  V30 61 O 17.623503 2.800961 0.000000 0
M  V30 62 C 17.123403 3.666957 0.000000 0
M  V30 63 O 16.123403 3.666955 0.000000 0
M  V30 64 C 17.623503 4.532962 0.000000 0
M  V30 65 C 16.623479 4.532962 0.000000 0
M  V30 66 C 17.989559 -2.028915 0.000000 0
M  V30 67 C 18.855555 -2.528815 0.000000 0
M  V30 68 O 24.917503 -2.028727 0.000000 0
M  V30 69 O 19.721530 -2.028727 0.000000 0
M  V30 70 C 20.587534 -2.528827 0.000000 0
M  V30 71 O 20.587536 -3.528828 0.000000 0
M  V30 72 C 21.453530 -2.028727 0.000000 0
M  V30 73 C 21.453530 -1.028727 0.000000 0
M  V30 74 O 22.319535 -2.528827 0.000000 0
M  V30 75 C 23.185531 -2.028727 0.000000 0
M  V30 76 O 23.185529 -1.028727 0.000000 0
M  V30 77 C 24.051535 -2.528827 0.000000 0
M  V30 78 C 24.051535 -1.528803 0.000000 0
M  V30 END ATOM
M  V30 BEGIN BOND
M  V30 1 1 2 3
M  V30 2 2 3 4
M  V30 3 1 4 5
M  V30 4 1 3 6
M  V30 5 2 6 7
M  V30 6 1 7 8
M  V30 7 1 8 9
M  V30 8 2 8 5
M  V30 9 1 11 12
M  V30 10 1 14 15
M  V30 11 2 15 16
M  V30 12 1 15 17
M  V30 13 1 17 18
M  V30 14 1 17 19
M  V30 15 1 19 20
M  V30 16 2 20 21
M  V30 17 1 20 22
M  V30 18 1 22 23
M  V30 19 1 12 14
M  V30 20 1 13 22
M  V30 21 1 1 11
M  V30 22 1 24 25
M  V30 23 1 27 28
M  V30 24 2 28 29
M  V30 25 1 28 30
M  V30 26 1 30 31
M  V30 27 1 30 32
M  V30 28 1 32 33
M  V30 29 2 33 34
M  V30 30 1 33 35
M  V30 31 1 35 36
M  V30 32 1 25 27
M  V30 33 1 26 35
M  V30 34 1 1 24
M  V30 35 1 37 38
M  V30 36 1 38 39
M  V30 37 2 39 40
M  V30 38 1 40 41
M  V30 39 2 41 42
M  V30 40 1 42 43
M  V30 41 2 43 44
M  V30 42 1 44 39
M  V30 43 1 1 38
M  V30 44 1 2 37
M  V30 45 1 45 46
M  V30 46 1 46 47
M  V30 47 2 47 48
M  V30 48 1 48 49
M  V30 49 2 49 50
M  V30 50 1 50 51
M  V30 51 2 51 52
M  V30 52 1 52 47
M  V30 53 1 9 45
M  V30 54 1 10 46
M  V30 55 1 53 54
M  V30 56 1 56 57
M  V30 57 2 57 58
M  V30 58 1 57 59
M  V30 59 1 59 60
M  V30 60 1 59 61
M  V30 61 1 61 62
M  V30 62 2 62 63
M  V30 63 1 62 64
M  V30 64 1 64 65
M  V30 65 1 54 56
M  V30 66 1 55 64
M  V30 67 1 10 53
M  V30 68 1 66 67
M  V30 69 1 69 70
M  V30 70 2 70 71
M  V30 71 1 70 72
M  V30 72 1 72 73
M  V30 73 1 72 74
M  V30 74 1 74 75
M  V30 75 2 75 76
M  V30 76 1 75 77
M  V30 77 1 77 78
M  V30 78 1 67 69
M  V30 79 1 68 77
M  V30 80 1 10 66
M  V30 END BOND
M  V30 BEGIN SGROUP
M  V30 1 SRU 0 ATOMS=(4 54 55 56 64) CBONDS=(2 65 66) -
M  V30 BRKXYZ=(9 17.8735 -0.2300 0 16.8733 -0.2300 0 0 0 0) BRKXYZ=(9 17.8736 -
M  V30 4.9659 0 16.8734 4.9659 0 0 0 0)
M  V30 2 SRU 0 ATOMS=(4 25 26 27 35) CBONDS=(2 32 33) -
M  V30 BRKXYZ=(9 8.2756 -0.7300 0 7.2754 -0.7300 0 0 0 0) BRKXYZ=(9 8.2756 4.4-
M  V30 660 0 7.2754 4.4660 0 0 0 0)
M  V30 3 SRU 0 ATOMS=(4 12 13 14 22) CBONDS=(2 19 20) -
M  V30 BRKXYZ=(9 5.3607 -2.7791 0 5.3607 -3.7793 0 0 0 0) BRKXYZ=(9 0.1647 -2.-
M  V30 7791 0 0.1647 -3.7793 0 0 0 0)
M  V30 4 SRU 0 ATOMS=(4 67 68 69 77) CBONDS=(2 78 79) -
M  V30 BRKXYZ=(9 19.2885 -2.7789 0 19.2885 -1.7787 0 0 0 0) BRKXYZ=(9 24.4845 -
M  V30 -2.7789 0 24.4845 -1.7787 0 0 0 0)
M  V30 5 SRU 0 ATOMS=(4 9 10 45 46) CBONDS=(2 53 54) -
M  V30 BRKXYZ=(9 14.8916 -3.0290 0 14.8916 -2.0290 0 0 0 0) BRKXYZ=(9 16.6906 -
M  V30 -2.7790 0 16.6906 -1.7790 0 0 0 0)
M  V30 6 SRU 0 ATOMS=(4 1 2 37 38) CBONDS=(2 43 44) -
M  V30 BRKXYZ=(9 9.8916 -2.0290 0 9.8916 -3.0290 0 0 0 0) BRKXYZ=(9 8.0256 -2.-
M  V30 5290 0 8.0256 -3.5290 0 0 0 0)
M  V30 END SGROUP
M  V30 END CTAB
M  END
>  <BIGSMILES_BRACKET_RECORDS_JSON>
{
  "records": [
    {
      "id": 0,
      "bracket_kind": "backbone",
      "pairing_id": "F9/fragments[0]",
      "group_id": "<1:3",
      "ru_midpoint": [
        17.37345311565312,
        2.3679553172183523
      ],
      "bond_midpoint": [
        17.373446949646226,
        -0.23003134082251409
      ],
      "orientation_vector": [
        1.0,
        0.0
      ],
      "half_bracket_size": 0.500100159950025,
      "bond": [
        53,
        55
      ],
      "fragment": "F9",
      "backbone": true,
      "suspended_anchor_atom": null,
      "suspended_reason": null,
      "source_label": "F9/fragments[0]",
      "marker_id": "0",
      "side": "left",
      "connection_group": "<1",
      "marker_type_index": 3
    },
    {
      "id": 1,
      "bracket_kind": "backbone",
      "pairing_id": "F9/fragments[0]",
      "group_id": ">1:4",
      "ru_midpoint": [
        17.37345311565312,
        2.3679553172183523
      ],
      "bond_midpoint": [
        17.373453195669107,
        4.965945487335686
      ],
      "orientation_vector": [
        1.0,
        0.0
      ],
      "half_bracket_size": 0.500100159950025,
      "bond": [
        54,
        63
      ],
      "fragment": "F9",
      "backbone": true,
      "suspended_anchor_atom": null,
      "suspended_reason": null,
      "source_label": "F9/fragments[0]",
      "marker_id": "11",
      "side": "right",
      "connection_group": ">1",
      "marker_type_index": 4
    },
    {
      "id": 2,
      "bracket_kind": "backbone",
      "pairing_id": "F8/fragments[0]",
      "group_id": "<1:3",
      "ru_midpoint": [
        7.775500478239477,
        1.8679913744940326
      ],
      "bond_midpoint": [
        7.775494312232586,
        -0.7299952835468333
      ],
      "orientation_vector": [
        1.0,
        0.0
      ],
      "half_bracket_size": 0.500100159950025,
      "bond": [
        24,
        26
      ],
      "fragment": "F8",
      "backbone": true,
      "suspended_anchor_atom": null,
      "suspended_reason": null,
      "source_label": "F8/fragments[0]",
      "marker_id": "0",
      "side": "left",
      "connection_group": "<1",
      "marker_type_index": 3
    },
    {
      "id": 3,
      "bracket_kind": "backbone",
      "pairing_id": "F8/fragments[0]",
      "group_id": ">1:4",
      "ru_midpoint": [
        7.775500478239477,
        1.8679913744940326
      ],
      "bond_midpoint": [
        7.775500558255465,
        4.465981544611368
      ],
      "orientation_vector": [
        1.0,
        0.0
      ],
      "half_bracket_size": 0.500100159950025,
      "bond": [
        25,
        34
      ],
      "fragment": "F8",
      "backbone": true,
      "suspended_anchor_atom": null,
      "suspended_reason": null,
      "source_label": "F8/fragments[0]",
      "marker_id": "11",
      "side": "right",
      "connection_group": ">1",
      "marker_type_index": 4
    },
    {
      "id": 4,
      "bracket_kind": "backbone",
      "pairing_id": "F7/fragments[0]",
      "group_id": "<1:3",
      "ru_midpoint": [
        2.762671811228043,
        -3.2792165833231754
      ],
      "bond_midpoint": [
        5.360658469268909,
        -3.279222749330068
      ],
      "orientation_vector": [
        0.0,
        1.0
      ],
      "half_bracket_size": 0.500100159950025,
      "bond": [
        11,
        13
      ],
      "fragment": "F7",
      "backbone": true,
      "suspended_anchor_atom": null,
      "suspended_reason": null,
      "source_label": "F7/fragments[0]",
      "marker_id": "0",
      "side": "left",
      "connection_group": "<1",
      "marker_type_index": 3
    },
    {
      "id": 5,
      "bracket_kind": "backbone",
      "pairing_id": "F7/fragments[0]",
      "group_id": ">1:4",
      "ru_midpoint": [
        2.762671811228043,
        -3.2792165833231754
      ],
      "bond_midpoint": [
        0.16468164111071015,
        -3.2792165033071887
      ],
      "orientation_vector": [
        0.0,
        1.0
      ],
      "half_bracket_size": 0.500100159950025,
      "bond": [
        12,
        21
      ],
      "fragment": "F7",
      "backbone": true,
      "suspended_anchor_atom": null,
      "suspended_reason": null,
      "source_label": "F7/fragments[0]",
      "marker_id": "11",
      "side": "right",
      "connection_group": ">1",
      "marker_type_index": 4
    },
    {
      "id": 6,
      "bracket_kind": "backbone",
      "pairing_id": "F10/fragments[0]",
      "group_id": "<1:3",
      "ru_midpoint": [
        21.886528851736244,
        -2.278777144807078
      ],
      "bond_midpoint": [
        19.288542193695378,
        -2.2787709788001855
      ],
      "orientation_vector": [
        0.0,
        -1.0
      ],
      "half_bracket_size": 0.500100159950025,
      "bond": [
        66,
        68
      ],
      "fragment": "F10",
      "backbone": true,
      "suspended_anchor_atom": null,
      "suspended_reason": null,
      "source_label": "F10/fragments[0]",
      "marker_id": "0",
      "side": "left",
      "connection_group": "<1",
      "marker_type_index": 3
    },
    {
      "id": 7,
      "bracket_kind": "backbone",
      "pairing_id": "F10/fragments[0]",
      "group_id": ">1:4",
      "ru_midpoint": [
        21.886528851736244,
        -2.278777144807078
      ],
      "bond_midpoint": [
        24.48451902185358,
        -2.278777224823065
      ],
      "orientation_vector": [
        0.0,
        -1.0
      ],
      "half_bracket_size": 0.500100159950025,
      "bond": [
        67,
        76
      ],
      "fragment": "F10",
      "backbone": true,
      "suspended_anchor_atom": null,
      "suspended_reason": null,
      "source_label": "F10/fragments[0]",
      "marker_id": "11",
      "side": "right",
      "connection_group": ">1",
      "marker_type_index": 4
    },
    {
      "id": 8,
      "bracket_kind": "backbone",
      "pairing_id": "F4/fragments[0]",
      "group_id": "$a:2",
      "ru_midpoint": [
        15.824589246641349,
        -2.278968247063437
      ],
      "bond_midpoint": [
        14.89163515986655,
        -2.528971776518053
      ],
      "orientation_vector": [
        0.0,
        -1.0
      ],
      "half_bracket_size": 0.5000070589092322,
      "bond": [
        8,
        44
      ],
      "fragment": "F4",
      "backbone": true,
      "suspended_anchor_atom": null,
      "suspended_reason": null,
      "source_label": "F4/fragments[0]",
      "marker_id": "0",
      "side": "left",
      "connection_group": "$a",
      "marker_type_index": 2
    },
    {
      "id": 9,
      "bracket_kind": "backbone",
      "pairing_id": "F4/fragments[0]",
      "group_id": "$a:2",
      "ru_midpoint": [
        15.824589246641349,
        -2.278968247063437
      ],
      "bond_midpoint": [
        16.690592486977856,
        -2.2789898051558946
      ],
      "orientation_vector": [
        0.0,
        -1.0
      ],
      "half_bracket_size": 0.5000070589092322,
      "bond": [
        9,
        45
      ],
      "fragment": "F4",
      "backbone": true,
      "suspended_anchor_atom": null,
      "suspended_reason": null,
      "source_label": "F4/fragments[0]",
      "marker_id": "9",
      "side": "right",
      "connection_group": "$a",
      "marker_type_index": 2
    },
    {
      "id": 10,
      "bracket_kind": "backbone",
      "pairing_id": "F3/fragments[0]",
      "group_id": "$a:2",
      "ru_midpoint": [
        8.958643089900722,
        -2.7789753059726694
      ],
      "bond_midpoint": [
        9.891597176675521,
        -2.5289717765180537
      ],
      "orientation_vector": [
        0.0,
        1.0
      ],
      "half_bracket_size": 0.5000070589092322,
      "bond": [
        1,
        36
      ],
      "fragment": "F3",
      "backbone": true,
      "suspended_anchor_atom": null,
      "suspended_reason": null,
      "source_label": "F3/fragments[0]",
      "marker_id": "0",
      "side": "left",
      "connection_group": "$a",
      "marker_type_index": 2
    },
    {
      "id": 11,
      "bracket_kind": "backbone",
      "pairing_id": "F3/fragments[0]",
      "group_id": "$a:2",
      "ru_midpoint": [
        8.958643089900722,
        -2.7789753059726694
      ],
      "bond_midpoint": [
        8.025638066185344,
        -3.0289788354272855
      ],
      "orientation_vector": [
        0.0,
        1.0
      ],
      "half_bracket_size": 0.5000070589092322,
      "bond": [
        0,
        37
      ],
      "fragment": "F3",
      "backbone": true,
      "suspended_anchor_atom": null,
      "suspended_reason": null,
      "source_label": "F3/fragments[0]",
      "marker_id": "9",
      "side": "right",
      "connection_group": "$a",
      "marker_type_index": 2
    }
  ]
}
