
     RDKit          2D

  0  0  0  0  0  0  0  0  0  0999 V3000
M  V30 BEGIN CTAB
M  V30 COUNTS 53 55 3 0 0
M  V30 BEGIN ATOM
M  V30 1 C 5.709627 1.986756 0.000000 0
M  V30 2 C 6.709627 1.986756 0.000000 0
M  V30 3 C 7.209640 1.120708 0.000000 0
M  V30 4 C 8.209667 1.120708 0.000000 0
M  V30 5 C 8.709681 1.986756 0.000000 0
M  V30 6 C 8.209667 2.852805 0.000000 0
M  V30 7 C 7.209640 2.852805 0.000000 0
M  V30 8 O 4.843623 2.486856 0.000000 0
M  V30 9 C 3.977627 1.986756 0.000000 0
M  V30 10 C 3.111738 2.486856 0.000000 0
M  V30 11 O -0.352532 2.486803 0.000000 0
M  V30 12 C -1.218413 1.986702 0.000000 0
M  V30 13 C -2.084301 2.486803 0.000000 0
M  V30 14 C -2.950182 1.986702 0.000000 0
M  V30 15 C -2.950182 0.986502 0.000000 0
M  V30 16 C -3.816182 0.486595 0.000000 0
M  V30 17 C -3.816182 -0.513406 0.000000 0
M  V30 18 C -2.950182 -1.013298 0.000000 0
M  V30 19 C -2.083982 -0.513391 0.000000 0
M  V30 20 C -2.083982 0.486609 0.000000 0
M  V30 21 C -3.816071 2.486803 0.000000 0
M  V30 22 C -6.414048 1.986753 0.000000 0
M  V30 23 C -7.280045 2.486854 0.000000 0
M  V30 24 C -8.146049 1.986753 0.000000 0
M  V30 25 C -9.012045 2.486854 0.000000 0
M  V30 26 O 2.245676 1.986918 0.000000 0
M  V30 27 C 1.379672 2.486819 0.000000 0
M  V30 28 C 0.513560 1.986918 0.000000 0
M  V30 29 C -1.218413 0.986702 0.000000 0
M  V30 30 O -1.718513 0.120706 0.000000 0
M  V30 31 C -1.218413 -0.745298 0.000000 0
M  V30 32 O -0.218412 -0.745301 0.000000 0
M  V30 33 C -1.718513 -1.611294 0.000000 0
M  V30 34 C -0.718588 -1.611294 0.000000 0
M  V30 35 C -2.718545 -1.611294 0.000000 0
M  V30 36 Br -1.218579 -4.209437 0.000000 0
M  V30 37 C -1.218578 -2.477358 0.000000 0
M  V30 38 C -1.718479 -3.343354 0.000000 0
M  V30 39 C -2.718410 -3.343354 0.000000 0
M  V30 40 O -3.218352 -4.209414 0.000000 0
M  V30 41 O -3.218501 -2.477468 0.000000 0
M  V30 42 C -4.218433 -2.477468 0.000000 0
M  V30 43 C -4.218260 -3.477500 0.000000 0
M  V30 44 C -5.084319 -2.977558 0.000000 0
M  V30 45 C -4.718423 -1.611408 0.000000 0
M  V30 46 C -4.682093 1.986797 0.000000 0
M  V30 47 C -5.548052 2.486804 0.000000 0
M  V30 48 C -5.548052 3.486806 0.000000 0
M  V30 49 C -4.681850 3.986739 0.000000 0
M  V30 50 C -4.682050 4.986741 0.000000 0
M  V30 51 C -5.547852 5.486810 0.000000 0
M  V30 52 C -6.414054 4.986877 0.000000 0
M  V30 53 C -6.413854 3.986875 0.000000 0
M  V30 END ATOM
M  V30 BEGIN BOND
M  V30 1 1 1 2
M  V30 2 2 2 3
M  V30 3 1 3 4
M  V30 4 2 4 5
M  V30 5 1 5 6
M  V30 6 2 6 7
M  V30 7 1 1 8
M  V30 8 1 8 9
M  V30 9 1 9 10
M  V30 10 1 11 12
M  V30 11 1 12 13
M  V30 12 1 13 14
M  V30 13 1 14 15
M  V30 14 2 15 16
M  V30 15 1 16 17
M  V30 16 2 17 18
M  V30 17 1 18 19
M  V30 18 2 19 20
M  V30 19 1 14 21
M  V30 20 1 22 23
M  V30 21 1 23 24
M  V30 22 1 24 25
M  V30 23 1 7 2
M  V30 24 1 20 15
M  V30 25 1 26 27
M  V30 26 1 27 28
M  V30 27 1 11 28
M  V30 28 1 10 26
M  V30 29 1 29 30
M  V30 30 1 30 31
M  V30 31 2 31 32
M  V30 32 1 31 33
M  V30 33 1 33 34
M  V30 34 1 33 35
M  V30 35 1 37 38
M  V30 36 1 38 39
M  V30 37 2 39 40
M  V30 38 1 39 41
M  V30 39 1 41 42
M  V30 40 1 42 43
M  V30 41 1 42 44
M  V30 42 1 42 45
M  V30 43 1 33 37
M  V30 44 1 36 38
M  V30 45 1 12 29
M  V30 46 1 46 47
M  V30 47 1 47 48
M  V30 48 2 48 49
M  V30 49 1 49 50
M  V30 50 2 50 51
M  V30 51 1 51 52
M  V30 52 2 52 53
M  V30 53 1 53 48
M  V30 54 1 22 47
M  V30 55 1 21 46
M  V30 END BOND
M  V30 BEGIN SGROUP
M  V30 1 SRU 0 ATOMS=(4 33 36 37 38) CBONDS=(2 43 44) -
M  V30 BRKXYZ=(9 -0.9686 -2.0443 0 -1.9684 -2.0443 0 0 0 0) BRKXYZ=(9 -0.9686 -
M  V30 -3.7764 0 -1.9684 -3.7764 0 0 0 0)
M  V30 2 SRU 0 ATOMS=(4 21 22 46 47) CBONDS=(2 54 55) -
M  V30 BRKXYZ=(9 -4.2491 1.7368 0 -4.2491 2.7368 0 0 0 0) BRKXYZ=(9 -5.9811 1.-
M  V30 7368 0 -5.9811 2.7368 0 0 0 0)
M  V30 3 SRU 0 ATOMS=(4 10 11 26 28) CBONDS=(2 27 28) -
M  V30 BRKXYZ=(9 2.6787 2.7368 0 2.6787 1.7370 0 0 0 0) BRKXYZ=(9 0.0805 2.736-
M  V30 8 0 0.0805 1.7370 0 0 0 0)
M  V30 END SGROUP
M  V30 END CTAB
M  END
>  <BIGSMILES_BRACKET_RECORDS_JSON>
{
  "records": [
    {
      "id": 0,
      "bracket_kind": "backbone",
      "pairing_id": "F4/fragments[0]",
      "group_id": "$a:2",
      "ru_midpoint": [
        -1.4685285438565314,
        -2.9103756831012397
      ],
      "bond_midpoint": [
        -1.4685455771959806,
        -2.0443261301288027
      ],
      "orientation_vector": [
        1.0,
        0.0
      ],
      "half_bracket_size": 0.4999001600153622,
      "bond": [
        32,
        36
      ],
      "fragment": "F4",
      "backbone": true,
      "suspended_anchor_atom": null,
      "suspended_reason": null,
      "source_label": "F4/fragments[0]",
      "marker_id": "0",
      "side": "left",
      "connection_group": "$a",
      "marker_type_index": 2
    },
    {
      "id": 1,
      "bracket_kind": "backbone",
      "pairing_id": "F4/fragments[0]",
      "group_id": "$a:2",
      "ru_midpoint": [
        -1.4685285438565314,
        -2.9103756831012397
      ],
      "bond_midpoint": [
        -1.468528623840519,
        -3.7763955897158574
      ],
      "orientation_vector": [
        1.0,
        0.0
      ],
      "half_bracket_size": 0.4999001600153622,
      "bond": [
        35,
        37
      ],
      "fragment": "F4",
      "backbone": true,
      "suspended_anchor_atom": null,
      "suspended_reason": null,
      "source_label": "F4/fragments[0]",
      "marker_id": "10",
      "side": "right",
      "connection_group": "$a",
      "marker_type_index": 2
    },
    {
      "id": 2,
      "bracket_kind": "backbone",
      "pairing_id": "F3/fragments[0]",
      "group_id": "$a:2",
      "ru_midpoint": [
        -5.1150470051951,
        2.236800118578474
      ],
      "bond_midpoint": [
        -4.2490819655954395,
        2.236799618572915
      ],
      "orientation_vector": [
        0.0,
        -1.0
      ],
      "half_bracket_size": 0.5000070589092322,
      "bond": [
        20,
        45
      ],
      "fragment": "F3",
      "backbone": true,
      "suspended_anchor_atom": null,
      "suspended_reason": null,
      "source_label": "F3/fragments[0]",
      "marker_id": "0",
      "side": "left",
      "connection_group": "$a",
      "marker_type_index": 2
    },
    {
      "id": 3,
      "bracket_kind": "backbone",
      "pairing_id": "F3/fragments[0]",
      "group_id": "$a:2",
      "ru_midpoint": [
        -5.1150470051951,
        2.236800118578474
      ],
      "bond_midpoint": [
        -5.981050245531606,
        2.236778560486016
      ],
      "orientation_vector": [
        0.0,
        -1.0
      ],
      "half_bracket_size": 0.5000070589092322,
      "bond": [
        21,
        46
      ],
      "fragment": "F3",
      "backbone": true,
      "suspended_anchor_atom": null,
      "suspended_reason": null,
      "source_label": "F3/fragments[0]",
      "marker_id": "9",
      "side": "right",
      "connection_group": "$a",
      "marker_type_index": 2
    },
    {
      "id": 4,
      "bracket_kind": "backbone",
      "pairing_id": "F1/fragments[0]",
      "group_id": "<1:3",
      "ru_midpoint": [
        1.3796043604611872,
        2.286858580053143
      ],
      "bond_midpoint": [
        2.678707004781312,
        2.2368873624181056
      ],
      "orientation_vector": [
        0.0,
        1.0
      ],
      "half_bracket_size": 0.49990016001536197,
      "bond": [
        9,
        25
      ],
      "fragment": "F1",
      "backbone": true,
      "suspended_anchor_atom": null,
      "suspended_reason": null,
      "source_label": "F1/fragments[0]",
      "marker_id": "0",
      "side": "left",
      "connection_group": "<1",
      "marker_type_index": 3
    },
    {
      "id": 5,
      "bracket_kind": "backbone",
      "pairing_id": "F1/fragments[0]",
      "group_id": ">1:4",
      "ru_midpoint": [
        1.3796043604611872,
        2.286858580053143
      ],
      "bond_midpoint": [
        0.08051433016697473,
        2.2368605660329495
      ],
      "orientation_vector": [
        0.0,
        1.0
      ],
      "half_bracket_size": 0.49990016001536197,
      "bond": [
        10,
        27
      ],
      "fragment": "F1",
      "backbone": true,
      "suspended_anchor_atom": null,
      "suspended_reason": null,
      "source_label": "F1/fragments[0]",
      "marker_id": "4",
      "side": "right",
      "connection_group": ">1",
      "marker_type_index": 4
    }
  ]
}
