
     RDKit          2D

  0  0  0  0  0  0  0  0  0  0999 V3000
M  V30 BEGIN CTAB
M  V30 COUNTS 48 49 1 0 0
M  V30 BEGIN ATOM
M  V30 1 C -1.177260 4.264192 0.000000 0
M  V30 2 C -2.043310 4.764163 0.000000 0
M  V30 3 O -2.043333 5.764107 0.000000 0
M  V30 4 O -2.909265 4.264192 0.000000 0
M  V30 5 C -3.775314 4.764163 0.000000 0
M  V30 6 C -4.641386 4.264192 0.000000 0
M  V30 7 O -5.507435 4.764163 0.000000 0
M  V30 8 S -1.177260 3.264266 0.000000 0
M  V30 9 C -2.043163 2.764167 0.000000 0
M  V30 10 S -2.909239 3.264093 0.000000 0
M  V30 11 C -2.043063 1.764414 0.000000 0
M  V30 12 C -1.177088 1.264315 0.000000 0
M  V30 13 C -1.176915 0.264289 0.000000 0
M  V30 14 C -2.042817 -0.235811 0.000000 0
M  V30 15 C -2.908893 0.264116 0.000000 0
M  V30 16 C -2.909066 1.264142 0.000000 0
M  V30 17 C -0.311084 4.764163 0.000000 0
M  V30 18 C 0.554872 4.264192 0.000000 0
M  V30 19 O 0.554867 3.264185 0.000000 0
M  V30 20 O 1.420848 4.764163 0.000000 0
M  V30 21 C 2.286804 4.264192 0.000000 0
M  V30 22 C 3.152780 4.764163 0.000000 0
M  V30 23 O 4.018736 4.264192 0.000000 0
M  V30 24 C 7.482543 4.264138 0.000000 0
M  V30 25 C 8.348520 4.764110 0.000000 0
M  V30 26 O 9.214475 4.264138 0.000000 0
M  V30 27 C 10.080452 4.764110 0.000000 0
M  V30 28 O 10.080457 5.764116 0.000000 0
M  V30 29 C 10.946407 4.264138 0.000000 0
M  V30 30 C 11.812384 4.764110 0.000000 0
M  V30 31 C 14.098675 4.264138 0.000000 0
M  V30 32 O 14.098720 3.264331 0.000000 0
M  V30 33 O 14.964766 4.764110 0.000000 0
M  V30 34 C 15.830838 4.264138 0.000000 0
M  V30 35 C 16.696929 4.764110 0.000000 0
M  V30 36 O 17.563000 4.264138 0.000000 0
M  V30 37 S 11.812384 3.764103 0.000000 0
M  V30 38 C 12.678290 3.264009 0.000000 0
M  V30 39 S 13.544395 3.763721 0.000000 0
M  V30 40 C 12.678090 2.264002 0.000000 0
M  V30 41 C 13.543996 1.763908 0.000000 0
M  V30 42 C 13.543596 0.763902 0.000000 0
M  V30 43 C 12.677690 0.263989 0.000000 0
M  V30 44 C 11.811584 0.764084 0.000000 0
M  V30 45 C 11.811984 1.764090 0.000000 0
M  V30 46 C 4.884713 4.764276 0.000000 0
M  V30 47 C 5.750709 4.264176 0.000000 0
M  V30 48 O 6.616598 4.764276 0.000000 0
M  V30 END ATOM
M  V30 BEGIN BOND
M  V30 1 1 1 2
M  V30 2 2 2 3
M  V30 3 1 2 4
M  V30 4 1 4 5
M  V30 5 1 5 6
M  V30 6 1 6 7
M  V30 7 1 1 8
M  V30 8 1 8 9
M  V30 9 2 9 10
M  V30 10 1 9 11
M  V30 11 2 11 12
M  V30 12 1 12 13
M  V30 13 2 13 14
M  V30 14 1 14 15
M  V30 15 2 15 16
M  V30 16 1 1 17
M  V30 17 1 17 18
M  V30 18 2 18 19
M  V30 19 1 18 20
M  V30 20 1 20 21
M  V30 21 1 21 22
M  V30 22 1 22 23
M  V30 23 1 24 25
M  V30 24 1 25 26
M  V30 25 1 26 27
M  V30 26 2 27 28
M  V30 27 1 27 29
M  V30 28 1 29 30
M  V30 29 1 30 31
M  V30 30 2 31 32
M  V30 31 1 31 33
M  V30 32 1 33 34
M  V30 33 1 34 35
M  V30 34 1 35 36
M  V30 35 1 30 37
M  V30 36 1 37 38
M  V30 37 2 38 39
M  V30 38 1 38 40
M  V30 39 2 40 41
M  V30 40 1 41 42
M  V30 41 2 42 43
M  V30 42 1 43 44
M  V30 43 2 44 45
M  V30 44 1 16 11
M  V30 45 1 45 40
M  V30 46 1 46 47
M  V30 47 1 47 48
M  V30 48 1 23 46
M  V30 49 1 24 48
M  V30 END BOND
M  V30 BEGIN SGROUP
M  V30 1 SRU 0 ATOMS=(4 23 24 46 48) CBONDS=(2 48 49) -
M  V30 BRKXYZ=(9 4.4517 4.0141 0 4.4517 5.0143 0 0 0 0) BRKXYZ=(9 7.0496 4.014-
M  V30 1 0 7.0496 5.0143 0 0 0 0)
M  V30 END SGROUP
M  V30 END CTAB
M  END
>  <BIGSMILES_BRACKET_RECORDS_JSON>
{
  "records": [
    {
      "id": 0,
      "bracket_kind": "backbone",
      "pairing_id": "F1/fragments[0]",
      "group_id": "<1:3",
      "ru_midpoint": [
        5.750641078410144,
        4.464215676303689
      ],
      "bond_midpoint": [
        4.451724254125196,
        4.514233693517195
      ],
      "orientation_vector": [
        0.0,
        -1.0
      ],
      "half_bracket_size": 0.5001001599500253,
      "bond": [
        22,
        45
      ],
      "fragment": "F1",
      "backbone": true,
      "suspended_anchor_atom": null,
      "suspended_reason": null,
      "source_label": "F1/fragments[0]",
      "marker_id": "0",
      "side": "left",
      "connection_group": "<1",
      "marker_type_index": 3
    },
    {
      "id": 1,
      "bracket_kind": "backbone",
      "pairing_id": "F1/fragments[0]",
      "group_id": ">1:4",
      "ru_midpoint": [
        5.750641078410144,
        4.464215676303689
      ],
      "bond_midpoint": [
        7.049570506022706,
        4.514206886411347
      ],
      "orientation_vector": [
        0.0,
        -1.0
      ],
      "half_bracket_size": 0.5001001599500253,
      "bond": [
        23,
        47
      ],
      "fragment": "F1",
      "backbone": true,
      "suspended_anchor_atom": null,
      "suspended_reason": null,
      "source_label": "F1/fragments[0]",
      "marker_id": "4",
      "side": "right",
      "connection_group": ">1",
      "marker_type_index": 4
    }
  ]
}
