
     RDKit          2D

  0  0  0  0  0  0  0  0  0  0999 V3000
M  V30 BEGIN CTAB
M  V30 COUNTS 14 14 1 0 0
M  V30 BEGIN ATOM
M  V30 1 H -1.299136 -0.448611 0.000000 0
M  V30 2 H 1.298602 0.051411 0.000000 0
M  V30 3 C -0.433224 0.051411 0.000000 0
M  V30 4 C 0.432689 -0.448611 0.000000 0
M  V30 5 C 0.432689 -1.448613 0.000000 0
M  V30 6 C -0.433313 -1.948682 0.000000 0
M  V30 7 C -0.433513 -2.948684 0.000000 0
M  V30 8 C 0.432689 -3.448617 0.000000 0
M  V30 9 S 0.432689 -4.448619 0.000000 0
M  V30 10 O -0.567313 -4.448619 0.000000 0
M  V30 11 O 1.432691 -4.448619 0.000000 0
M  V30 12 O 0.432689 -5.448621 0.000000 0 CHG=-1
M  V30 13 C 1.298691 -2.948548 0.000000 0
M  V30 14 C 1.298691 -1.948546 0.000000 0
M  V30 END ATOM
M  V30 BEGIN BOND
M  V30 1 1 3 4
M  V30 2 1 4 5
M  V30 3 2 5 6
M  V30 4 1 6 7
M  V30 5 2 7 8
M  V30 6 1 8 9
M  V30 7 2 9 10
M  V30 8 2 9 11
M  V30 9 1 9 12
M  V30 10 1 8 13
M  V30 11 2 13 14
M  V30 12 1 14 5
M  V30 13 1 1 3
M  V30 14 1 2 4
M  V30 END BOND
M  V30 BEGIN SGROUP
M  V30 1 SRU 0 ATOMS=(4 1 2 3 4) CBONDS=(2 13 14) -
M  V30 BRKXYZ=(9 -0.8662 0.3014 0 -0.8662 -0.6986 0 0 0 0) BRKXYZ=(9 0.8656 0.-
M  V30 3014 0 0.8656 -0.6986 0 0 0 0)
M  V30 END SGROUP
M  V30 END CTAB
M  END
>  <BIGSMILES_BRACKET_RECORDS_JSON>
{
  "records": [
    {
      "id": 0,
      "bracket_kind": "backbone",
      "pairing_id": "F1/fragments[0]",
      "group_id": "$a:2",
      "ru_midpoint": [
        -0.000250325607052182,
        -0.19857061901129502
      ],
      "bond_midpoint": [
        -0.8661799155792629,
        -0.1985999999999999
      ],
      "orientation_vector": [
        0.0,
        1.0
      ],
      "half_bracket_size": 0.5000228868815642,
      "bond": [
        0,
        2
      ],
      "fragment": "F1",
      "backbone": true,
      "suspended_anchor_atom": null,
      "suspended_reason": null,
      "source_label": "F1/fragments[0]",
      "marker_id": "0",
      "side": "left",
      "connection_group": "$a",
      "marker_type_index": 2
    },
    {
      "id": 1,
      "bracket_kind": "backbone",
      "pairing_id": "F1/fragments[0]",
      "group_id": "$a:2",
      "ru_midpoint": [
        -0.000250325607052182,
        -0.19857061901129502
      ],
      "bond_midpoint": [
        0.86564533264254,
        -0.1985999999999999
      ],
      "orientation_vector": [
        0.0,
        1.0
      ],
      "half_bracket_size": 0.5000228868815642,
      "bond": [
        1,
        3
      ],
      "fragment": "F1",
      "backbone": true,
      "suspended_anchor_atom": null,
      "suspended_reason": null,
      "source_label": "F1/fragments[0]",
      "marker_id": "13",
      "side": "right",
      "connection_group": "$a",
      "marker_type_index": 2
    }
  ]
}
