
     RDKit          2D

  0  0  0  0  0  0  0  0  0  0999 V3000
M  V30 BEGIN CTAB
M  V30 COUNTS 11 11 2 0 0
M  V30 BEGIN ATOM
M  V30 1 Br -2.350638 -0.180500 0.000000 0
M  V30 2 B 1.113439 -0.180500 0.000000 0
M  V30 3 O 1.113439 0.819425 0.000000 0
M  V30 4 O 1.979407 -0.680600 0.000000 0
M  V30 5 C -1.484612 -0.680500 0.000000 0
M  V30 6 C -0.618599 -0.180507 0.000000 0
M  V30 7 C 0.247414 -0.680500 0.000000 0
M  V30 8 C 0.247414 -1.680486 0.000000 0
M  V30 9 C -0.618599 -2.180479 0.000000 0
M  V30 10 C -1.484612 -1.680486 0.000000 0
M  V30 11 R -0.618599 -3.180457 0.000000 3
M  V30 END ATOM
M  V30 BEGIN BOND
M  V30 1 1 2 3
M  V30 2 1 2 4
M  V30 3 2 5 6
M  V30 4 1 6 7
M  V30 5 2 7 8
M  V30 6 1 8 9
M  V30 7 2 9 10
M  V30 8 1 9 11
M  V30 9 1 10 5
M  V30 10 1 1 5
M  V30 11 1 2 7
M  V30 END BOND
M  V30 BEGIN SGROUP
M  V30 1 SRU 0 ATOMS=(4 1 2 5 7) CBONDS=(2 10 11) -
M  V30 BRKXYZ=(9 -1.9176 1.5695 0 -1.9176 -2.4305 0 0 0 0) BRKXYZ=(9 0.6804 1.-
M  V30 5695 0 0.6804 -2.4305 0 0 0 0)
M  V30 2 SRU 0 ATOMS=(2 9 11) CBONDS=(1 8) -
M  V30 BRKXYZ=(9 -0.1186 -2.6805 0 -1.1186 -2.6805 0 0 0 0)
M  V30 END SGROUP
M  V30 END CTAB
M  END
>  <BIGSMILES_BRACKET_RECORDS_JSON>
{
  "records": [
    {
      "id": 0,
      "bracket_kind": "backbone",
      "pairing_id": "F1/fragments[0]",
      "group_id": "<1:3",
      "ru_midpoint": [
        -0.6185994341802311,
        -0.930494764621801
      ],
      "bond_midpoint": [
        -1.91762507988008,
        -0.4305001599500247
      ],
      "orientation_vector": [
        0.0,
        1.0
      ],
      "half_bracket_size": 1.9999784186871055,
      "bond": [
        0,
        4
      ],
      "fragment": "F1",
      "backbone": true,
      "suspended_anchor_atom": null,
      "suspended_reason": null,
      "source_label": "F1/fragments[0]",
      "marker_id": "0",
      "side": "left",
      "connection_group": "<1",
      "marker_type_index": 3
    },
    {
      "id": 1,
      "bracket_kind": "backbone",
      "pairing_id": "F1/fragments[0]",
      "group_id": ">1:4",
      "ru_midpoint": [
        -0.6185994341802311,
        -0.930494764621801
      ],
      "bond_midpoint": [
        0.6804262115196178,
        -0.43050015995002483
      ],
      "orientation_vector": [
        0.0,
        1.0
      ],
      "half_bracket_size": 1.9999784186871055,
      "bond": [
        1,
        6
      ],
      "fragment": "F1",
      "backbone": true,
      "suspended_anchor_atom": null,
      "suspended_reason": null,
      "source_label": "F1/fragments[0]",
      "marker_id": "4",
      "side": "right",
      "connection_group": ">1",
      "marker_type_index": 4
    },
    {
      "id": 2,
      "bracket_kind": "pendant",
      "pairing_id": "F1/fragments[0]",
      "group_id": "<1:3",
      "ru_midpoint": [
        -0.6185994341802311,
        -0.930494764621801
      ],
      "bond_midpoint": [
        -0.6185994341802302,
        -2.680467703520995
      ],
      "orientation_vector": [
        1.0,
        0.0
      ],
      "half_bracket_size": 0.4999891248838648,
      "bond": [
        8,
        10
      ],
      "fragment": "F1",
      "backbone": false,
      "suspended_anchor_atom": null,
      "suspended_reason": null,
      "source_label": "F1/fragments[0]",
      "marker_id": "8",
      "side": "right",
      "connection_group": "<1",
      "marker_type_index": 3
    }
  ]
}
