
     RDKit          2D

  0  0  0  0  0  0  0  0  0  0999 V3000
M  V30 BEGIN CTAB
M  V30 COUNTS 11 11 1 0 0
M  V30 BEGIN ATOM
M  V30 1 H -1.299502 0.051381 0.000000 0
M  V30 2 H 1.298787 -0.448581 0.000000 0
M  V30 3 Si -0.433406 -0.448581 0.000000 0 VAL=4
M  V30 4 C -0.433406 -1.448607 0.000000 0
M  V30 5 C -1.299567 -1.948457 0.000000 0
M  V30 6 C -1.299567 -2.948483 0.000000 0
M  V30 7 C -0.433578 -3.448559 0.000000 0
M  V30 8 C 0.432411 -2.948608 0.000000 0
M  V30 9 C 0.432583 -1.948683 0.000000 0
M  V30 10 C -0.433406 0.551462 0.000000 0
M  V30 11 O 0.432691 0.051381 0.000000 0
M  V30 END ATOM
M  V30 BEGIN BOND
M  V30 1 1 3 4
M  V30 2 2 4 5
M  V30 3 1 5 6
M  V30 4 2 6 7
M  V30 5 1 7 8
M  V30 6 2 8 9
M  V30 7 1 3 10
M  V30 8 1 3 11
M  V30 9 1 9 4
M  V30 10 1 1 3
M  V30 11 1 2 11
M  V30 END BOND
M  V30 BEGIN SGROUP
M  V30 1 SRU 0 ATOMS=(4 1 2 3 11) CBONDS=(2 10 11) -
M  V30 BRKXYZ=(9 -0.8665 0.3014 0 -0.8665 -0.6986 0 0 0 0) BRKXYZ=(9 0.8657 0.-
M  V30 3014 0 0.8657 -0.6986 0 0 0 0)
M  V30 END SGROUP
M  V30 END CTAB
M  END
>  <BIGSMILES_BRACKET_RECORDS_JSON>
{
  "records": [
    {
      "id": 0,
      "bracket_kind": "backbone",
      "pairing_id": "F1/fragments[0]",
      "group_id": "<1:3",
      "ru_midpoint": [
        -0.00031782851277917246,
        -0.19866835217093026
      ],
      "bond_midpoint": [
        -0.8664538298122633,
        -0.1985999999999999
      ],
      "orientation_vector": [
        0.0,
        1.0
      ],
      "half_bracket_size": 0.4999626586056203,
      "bond": [
        0,
        2
      ],
      "fragment": "F1",
      "backbone": true,
      "suspended_anchor_atom": null,
      "suspended_reason": null,
      "source_label": "F1/fragments[0]",
      "marker_id": "0",
      "side": "left",
      "connection_group": "<1",
      "marker_type_index": 3
    },
    {
      "id": 1,
      "bracket_kind": "backbone",
      "pairing_id": "F1/fragments[0]",
      "group_id": ">1:4",
      "ru_midpoint": [
        -0.00031782851277917246,
        -0.19866835217093026
      ],
      "bond_midpoint": [
        0.8657392079291997,
        -0.1985999999999999
      ],
      "orientation_vector": [
        0.0,
        1.0
      ],
      "half_bracket_size": 0.4999626586056203,
      "bond": [
        1,
        10
      ],
      "fragment": "F1",
      "backbone": true,
      "suspended_anchor_atom": null,
      "suspended_reason": null,
      "source_label": "F1/fragments[0]",
      "marker_id": "10",
      "side": "right",
      "connection_group": ">1",
      "marker_type_index": 4
    }
  ]
}
