
     RDKit          2D

  0  0  0  0  0  0  0  0  0  0999 V3000
M  V30 BEGIN CTAB
M  V30 COUNTS 6 5 1 0 0
M  V30 BEGIN ATOM
M  V30 1 H -2.165206 -0.448550 0.000000 0
M  V30 2 H 2.164807 0.051350 0.000000 0
M  V30 3 C -1.299202 0.051350 0.000000 0
M  V30 4 C -0.433198 -0.448550 0.000000 0
M  V30 5 C 0.432799 0.051350 0.000000 0
M  V30 6 O 1.298803 -0.448550 0.000000 0
M  V30 END ATOM
M  V30 BEGIN BOND
M  V30 1 1 3 4
M  V30 2 1 4 5
M  V30 3 1 5 6
M  V30 4 1 1 3
M  V30 5 1 2 6
M  V30 END BOND
M  V30 BEGIN SGROUP
M  V30 1 SRU 0 ATOMS=(4 1 2 3 6) CBONDS=(2 4 5) -
M  V30 BRKXYZ=(9 -1.7322 0.3013 0 -1.7322 -0.6985 0 0 0 0) BRKXYZ=(9 1.7318 0.-
M  V30 3013 0 1.7318 -0.6985 0 0 0 0)
M  V30 END SGROUP
M  V30 END CTAB
M  END
>  <BIGSMILES_BRACKET_RECORDS_JSON>
{
  "records": [
    {
      "id": 0,
      "bracket_kind": "backbone",
      "pairing_id": "F1/fragments[0]",
      "group_id": "<1:3",
      "ru_midpoint": [
        -0.00019943418023071757,
        -0.19859999999999997
      ],
      "bond_midpoint": [
        -1.7322040762111395,
        -0.19860000000000017
      ],
      "orientation_vector": [
        0.0,
        1.0
      ],
      "half_bracket_size": 0.49990016001536275,
      "bond": [
        0,
        2
      ],
      "fragment": "F1",
      "backbone": true,
      "suspended_anchor_atom": null,
      "suspended_reason": null,
      "source_label": "F1/fragments[0]",
      "marker_id": "0",
      "side": "left",
      "connection_group": "<1",
      "marker_type_index": 3
    },
    {
      "id": 1,
      "bracket_kind": "backbone",
      "pairing_id": "F1/fragments[0]",
      "group_id": ">1:4",
      "ru_midpoint": [
        -0.00019943418023071757,
        -0.19859999999999997
      ],
      "bond_midpoint": [
        1.7318052078506772,
        -0.19859999999999983
      ],
      "orientation_vector": [
        0.0,
        1.0
      ],
      "half_bracket_size": 0.49990016001536275,
      "bond": [
        1,
        5
      ],
      "fragment": "F1",
      "backbone": true,
      "suspended_anchor_atom": null,
      "suspended_reason": null,
      "source_label": "F1/fragments[0]",
      "marker_id": "5",
      "side": "right",
      "connection_group": ">1",
      "marker_type_index": 4
    }
  ]
}
