
     RDKit          2D

  0  0  0  0  0  0  0  0  0  0999 V3000
M  V30 BEGIN CTAB
M  V30 COUNTS 13 13 1 0 0
M  V30 BEGIN ATOM
M  V30 1 H -2.165170 -0.448652 0.000000 0
M  V30 2 H 2.164887 0.051452 0.000000 0
M  V30 3 C -1.299155 0.051452 0.000000 0
M  V30 4 C -0.433139 -0.448652 0.000000 0
M  V30 5 C 0.432857 0.051452 0.000000 0
M  V30 6 C 1.298872 -0.448652 0.000000 0
M  V30 7 C 1.298872 0.551292 0.000000 0
M  V30 8 C 1.298872 -1.448678 0.000000 0
M  V30 9 C 0.432710 -1.948527 0.000000 0
M  V30 10 C 0.432710 -2.948553 0.000000 0
M  V30 11 C 1.298699 -3.448629 0.000000 0
M  V30 12 C 2.164688 -2.948679 0.000000 0
M  V30 13 C 2.164688 -1.948653 0.000000 0
M  V30 END ATOM
M  V30 BEGIN BOND
M  V30 1 1 3 4
M  V30 2 1 4 5
M  V30 3 1 5 6
M  V30 4 1 6 7
M  V30 5 1 6 8
M  V30 6 2 8 9
M  V30 7 1 9 10
M  V30 8 2 10 11
M  V30 9 1 11 12
M  V30 10 2 12 13
M  V30 11 1 13 8
M  V30 12 1 1 3
M  V30 13 1 2 6
M  V30 END BOND
M  V30 BEGIN SGROUP
M  V30 1 SRU 0 ATOMS=(4 1 2 3 6) CBONDS=(2 12 13) -
M  V30 BRKXYZ=(9 -1.7322 0.3015 0 -1.7322 -0.6987 0 0 0 0) BRKXYZ=(9 1.7319 0.-
M  V30 3015 0 1.7319 -0.6987 0 0 0 0)
M  V30 END SGROUP
M  V30 END CTAB
M  END
>  <BIGSMILES_BRACKET_RECORDS_JSON>
{
  "records": [
    {
      "id": 0,
      "bracket_kind": "backbone",
      "pairing_id": "F1/fragments[0]",
      "group_id": "<1:3",
      "ru_midpoint": [
        -0.00014616982012860547,
        -0.19862516203369945
      ],
      "bond_midpoint": [
        -1.732162235903234,
        -0.1986
      ],
      "orientation_vector": [
        0.0,
        1.0
      ],
      "half_bracket_size": 0.5001032392455471,
      "bond": [
        0,
        2
      ],
      "fragment": "F1",
      "backbone": true,
      "suspended_anchor_atom": null,
      "suspended_reason": null,
      "source_label": "F1/fragments[0]",
      "marker_id": "0",
      "side": "left",
      "connection_group": "<1",
      "marker_type_index": 3
    },
    {
      "id": 1,
      "bracket_kind": "backbone",
      "pairing_id": "F1/fragments[0]",
      "group_id": ">1:4",
      "ru_midpoint": [
        -0.00014616982012860547,
        -0.19862516203369945
      ],
      "bond_midpoint": [
        1.731879565285724,
        -0.1986
      ],
      "orientation_vector": [
        0.0,
        1.0
      ],
      "half_bracket_size": 0.5001032392455471,
      "bond": [
        1,
        5
      ],
      "fragment": "F1",
      "backbone": true,
      "suspended_anchor_atom": null,
      "suspended_reason": null,
      "source_label": "F1/fragments[0]",
      "marker_id": "12",
      "side": "right",
      "connection_group": ">1",
      "marker_type_index": 4
    }
  ]
}
