
     RDKit          2D

  0  0  0  0  0  0  0  0  0  0999 V3000
M  V30 BEGIN CTAB
M  V30 COUNTS 10 9 1 0 0
M  V30 BEGIN ATOM
M  V30 1 H -2.165326 -0.448550 0.000000 0
M  V30 2 H 2.164910 0.051350 0.000000 0
M  V30 3 C -1.299321 0.051350 0.000000 0
M  V30 4 C -0.433317 -0.448550 0.000000 0
M  V30 5 C -0.433317 0.551475 0.000000 0
M  V30 6 Cl 0.432662 1.051555 0.000000 0
M  V30 7 C -0.433317 -1.448475 0.000000 0
M  V30 8 Cl 0.432575 -1.948569 0.000000 0
M  V30 9 C 0.432687 0.051350 0.000000 0
M  V30 10 O 1.298799 -0.448550 0.000000 0
M  V30 END ATOM
M  V30 BEGIN BOND
M  V30 1 1 3 4
M  V30 2 1 4 5
M  V30 3 1 5 6
M  V30 4 1 4 7
M  V30 5 1 7 8
M  V30 6 1 4 9
M  V30 7 1 9 10
M  V30 8 1 1 3
M  V30 9 1 2 10
M  V30 END BOND
M  V30 BEGIN SGROUP
M  V30 1 SRU 0 ATOMS=(4 1 2 3 10) CBONDS=(2 8 9) -
M  V30 BRKXYZ=(9 -1.7323 0.3013 0 -1.7323 -0.6985 0 0 0 0) BRKXYZ=(9 1.7319 0.-
M  V30 3013 0 1.7319 -0.6985 0 0 0 0)
M  V30 END SGROUP
M  V30 END CTAB
M  END
>  <BIGSMILES_BRACKET_RECORDS_JSON>
{
  "records": [
    {
      "id": 0,
      "bracket_kind": "backbone",
      "pairing_id": "F1/fragments[0]",
      "group_id": "<1:3",
      "ru_midpoint": [
        -0.00022044375407115346,
        -0.1985732036148441
      ],
      "bond_midpoint": [
        -1.7323236181272432,
        -0.1986
      ],
      "orientation_vector": [
        0.0,
        1.0
      ],
      "half_bracket_size": 0.4999001600153623,
      "bond": [
        0,
        2
      ],
      "fragment": "F1",
      "backbone": true,
      "suspended_anchor_atom": null,
      "suspended_reason": null,
      "source_label": "F1/fragments[0]",
      "marker_id": "0",
      "side": "left",
      "connection_group": "<1",
      "marker_type_index": 3
    },
    {
      "id": 1,
      "bracket_kind": "backbone",
      "pairing_id": "F1/fragments[0]",
      "group_id": ">1:4",
      "ru_midpoint": [
        -0.00022044375407115346,
        -0.1985732036148441
      ],
      "bond_midpoint": [
        1.7318545466341886,
        -0.19860000000000022
      ],
      "orientation_vector": [
        0.0,
        1.0
      ],
      "half_bracket_size": 0.4999001600153623,
      "bond": [
        1,
        9
      ],
      "fragment": "F1",
      "backbone": true,
      "suspended_anchor_atom": null,
      "suspended_reason": null,
      "source_label": "F1/fragments[0]",
      "marker_id": "9",
      "side": "right",
      "connection_group": ">1",
      "marker_type_index": 4
    }
  ]
}
