
     RDKit          2D

  0  0  0  0  0  0  0  0  0  0999 V3000
M  V30 BEGIN CTAB
M  V30 COUNTS 12 13 1 0 0
M  V30 BEGIN ATOM
M  V30 1 H -3.044683 -0.337960 0.000000 0
M  V30 2 H 3.044284 -0.028943 0.000000 0
M  V30 3 C -2.093626 -0.646977 0.000000 0
M  V30 4 N -1.284677 -0.059240 0.000000 0
M  V30 5 C -0.475728 -0.646977 0.000000 0
M  V30 6 C -0.784719 -1.597954 0.000000 0
M  V30 7 C -1.784635 -1.597954 0.000000 0
M  V30 8 C 0.475329 -0.337960 0.000000 0
M  V30 9 C 0.784320 -1.288937 0.000000 0
M  V30 10 C 1.784236 -1.288937 0.000000 0
M  V30 11 C 2.093228 -0.337960 0.000000 0
M  V30 12 N 1.284278 0.249777 0.000000 0
M  V30 END ATOM
M  V30 BEGIN BOND
M  V30 1 1 3 4
M  V30 2 1 4 5
M  V30 3 2 5 6
M  V30 4 1 6 7
M  V30 5 1 5 8
M  V30 6 2 8 9
M  V30 7 1 9 10
M  V30 8 2 10 11
M  V30 9 1 11 12
M  V30 10 2 3 7
M  V30 11 1 12 8
M  V30 12 1 1 3
M  V30 13 1 2 11
M  V30 END BOND
M  V30 BEGIN SGROUP
M  V30 1 SRU 0 ATOMS=(4 1 2 3 11) CBONDS=(2 12 13) -
M  V30 BRKXYZ=(9 -2.5692 1.3553 0 -2.5692 -2.3402 0 0 0 0) BRKXYZ=(9 2.5688 1.-
M  V30 6643 0 2.5688 -2.0312 0 0 0 0)
M  V30 END SGROUP
M  V30 END CTAB
M  END
>  <BIGSMILES_BRACKET_RECORDS_JSON>
{
  "records": [
    {
      "id": 0,
      "bracket_kind": "backbone",
      "pairing_id": "F1/fragments[0]",
      "group_id": "$a:2",
      "ru_midpoint": [
        -0.00019943418023071757,
        -0.6600015363600302
      ],
      "bond_midpoint": [
        -2.5691546556560536,
        -0.49246805382964004
      ],
      "orientation_vector": [
        0.0,
        1.0
      ],
      "half_bracket_size": 1.8477301006425138,
      "bond": [
        0,
        2
      ],
      "fragment": "F1",
      "backbone": true,
      "suspended_anchor_atom": null,
      "suspended_reason": null,
      "source_label": "F1/fragments[0]",
      "marker_id": "0",
      "side": "left",
      "connection_group": "$a",
      "marker_type_index": 2
    },
    {
      "id": 1,
      "bracket_kind": "backbone",
      "pairing_id": "F1/fragments[0]",
      "group_id": "$a:2",
      "ru_midpoint": [
        -0.00019943418023071757,
        -0.6600015363600302
      ],
      "bond_midpoint": [
        2.56875578729559,
        -0.18345105945469228
      ],
      "orientation_vector": [
        0.0,
        1.0
      ],
      "half_bracket_size": 1.8477301006425138,
      "bond": [
        1,
        10
      ],
      "fragment": "F1",
      "backbone": true,
      "suspended_anchor_atom": null,
      "suspended_reason": null,
      "source_label": "F1/fragments[0]",
      "marker_id": "11",
      "side": "right",
      "connection_group": "$a",
      "marker_type_index": 2
    }
  ]
}
