
     RDKit          2D

  0  0  0  0  0  0  0  0  0  0999 V3000
M  V30 BEGIN CTAB
M  V30 COUNTS 19 19 1 0 0
M  V30 BEGIN ATOM
M  V30 1 H -1.299065 -0.448606 0.000000 0
M  V30 2 H 1.298754 0.051406 0.000000 0
M  V30 3 C -0.433126 0.051406 0.000000 0
M  V30 4 C 0.432814 -0.448606 0.000000 0
M  V30 5 C 0.432814 -1.448806 0.000000 0
M  V30 6 C 1.299014 -1.948699 0.000000 0
M  V30 7 C 1.299015 -2.948700 0.000000 0
M  V30 8 C 0.432814 -3.448607 0.000000 0
M  V30 9 C -0.433186 -2.948714 0.000000 0
M  V30 10 C -0.433186 -1.948514 0.000000 0
M  V30 11 O -1.299186 -1.448621 0.000000 0
M  V30 12 C -2.165187 -1.948729 0.000000 0
M  V30 13 C -3.031187 -1.448636 0.000000 0
M  V30 14 C -3.897187 -1.948543 0.000000 0
M  V30 15 C -4.763188 -1.448651 0.000000 0
M  V30 16 C -5.629188 -1.948558 0.000000 0
M  V30 17 C -6.495188 -1.448665 0.000000 0
M  V30 18 C -7.361188 -1.948573 0.000000 0
M  V30 19 C -8.227189 -1.448680 0.000000 0
M  V30 END ATOM
M  V30 BEGIN BOND
M  V30 1 1 3 4
M  V30 2 1 4 5
M  V30 3 2 5 6
M  V30 4 1 6 7
M  V30 5 2 7 8
M  V30 6 1 8 9
M  V30 7 2 9 10
M  V30 8 1 10 11
M  V30 9 1 11 12
M  V30 10 1 12 13
M  V30 11 1 13 14
M  V30 12 1 14 15
M  V30 13 1 15 16
M  V30 14 1 16 17
M  V30 15 1 17 18
M  V30 16 1 18 19
M  V30 17 1 10 5
M  V30 18 1 1 3
M  V30 19 1 2 4
M  V30 END BOND
M  V30 BEGIN SGROUP
M  V30 1 SRU 0 ATOMS=(4 1 2 3 4) CBONDS=(2 18 19) -
M  V30 BRKXYZ=(9 -0.8661 0.3014 0 -0.8661 -0.6986 0 0 0 0) BRKXYZ=(9 0.8658 0.-
M  V30 3014 0 0.8658 -0.6986 0 0 0 0)
M  V30 END SGROUP
M  V30 END CTAB
M  END
>  <BIGSMILES_BRACKET_RECORDS_JSON>
{
  "records": [
    {
      "id": 0,
      "bracket_kind": "backbone",
      "pairing_id": "F1/fragments[0]",
      "group_id": "$a:2",
      "ru_midpoint": [
        -0.0001667293973621753,
        -0.19861888258643545
      ],
      "bond_midpoint": [
        -0.8660954305651005,
        -0.19859999999999967
      ],
      "orientation_vector": [
        0.0,
        1.0
      ],
      "half_bracket_size": 0.5000123282855897,
      "bond": [
        0,
        2
      ],
      "fragment": "F1",
      "backbone": true,
      "suspended_anchor_atom": null,
      "suspended_reason": null,
      "source_label": "F1/fragments[0]",
      "marker_id": "0",
      "side": "left",
      "connection_group": "$a",
      "marker_type_index": 2
    },
    {
      "id": 1,
      "bracket_kind": "backbone",
      "pairing_id": "F1/fragments[0]",
      "group_id": "$a:2",
      "ru_midpoint": [
        -0.0001667293973621753,
        -0.19861888258643545
      ],
      "bond_midpoint": [
        0.8657837702597417,
        -0.19859999999999967
      ],
      "orientation_vector": [
        0.0,
        1.0
      ],
      "half_bracket_size": 0.5000123282855897,
      "bond": [
        1,
        3
      ],
      "fragment": "F1",
      "backbone": true,
      "suspended_anchor_atom": null,
      "suspended_reason": null,
      "source_label": "F1/fragments[0]",
      "marker_id": "18",
      "side": "right",
      "connection_group": "$a",
      "marker_type_index": 2
    }
  ]
}
