
     RDKit          2D

  0  0  0  0  0  0  0  0  0  0999 V3000
M  V30 BEGIN CTAB
M  V30 COUNTS 11 10 1 0 0
M  V30 BEGIN ATOM
M  V30 1 H -1.299250 -0.448550 0.000000 0
M  V30 2 H 1.298764 0.051350 0.000000 0
M  V30 3 C -0.433245 0.051350 0.000000 0
M  V30 4 C 0.432759 -0.448550 0.000000 0
M  V30 5 C 0.432759 -1.452088 0.000000 0
M  V30 6 F 0.932853 -2.317981 0.000000 0
M  V30 7 F 1.432784 -1.451915 0.000000 0
M  V30 8 C -0.433133 -1.952182 0.000000 0
M  V30 9 F -0.933127 -1.086116 0.000000 0
M  V30 10 F -1.433058 -1.952182 0.000000 0
M  V30 11 F -0.433133 -2.952107 0.000000 0
M  V30 END ATOM
M  V30 BEGIN BOND
M  V30 1 1 3 4
M  V30 2 1 4 5
M  V30 3 1 5 6
M  V30 4 1 5 7
M  V30 5 1 5 8
M  V30 6 1 8 9
M  V30 7 1 8 10
M  V30 8 1 8 11
M  V30 9 1 1 3
M  V30 10 1 2 4
M  V30 END BOND
M  V30 BEGIN SGROUP
M  V30 1 SRU 0 ATOMS=(4 1 2 3 4) CBONDS=(2 9 10) -
M  V30 BRKXYZ=(9 -0.8662 0.3013 0 -0.8662 -0.6985 0 0 0 0) BRKXYZ=(9 0.8658 0.-
M  V30 3013 0 0.8658 -0.6985 0 0 0 0)
M  V30 END SGROUP
M  V30 END CTAB
M  END
>  <BIGSMILES_BRACKET_RECORDS_JSON>
{
  "records": [
    {
      "id": 0,
      "bracket_kind": "backbone",
      "pairing_id": "F1/fragments[0]",
      "group_id": "$a:2",
      "ru_midpoint": [
        -0.0002321316269334739,
        -0.1985811216495139
      ],
      "bond_midpoint": [
        -0.8662473940684188,
        -0.1986
      ],
      "orientation_vector": [
        0.0,
        1.0
      ],
      "half_bracket_size": 0.49990016001536186,
      "bond": [
        0,
        2
      ],
      "fragment": "F1",
      "backbone": true,
      "suspended_anchor_atom": null,
      "suspended_reason": null,
      "source_label": "F1/fragments[0]",
      "marker_id": "0",
      "side": "left",
      "connection_group": "$a",
      "marker_type_index": 2
    },
    {
      "id": 1,
      "bracket_kind": "backbone",
      "pairing_id": "F1/fragments[0]",
      "group_id": "$a:2",
      "ru_midpoint": [
        -0.0002321316269334739,
        -0.1985811216495139
      ],
      "bond_midpoint": [
        0.8657613241736288,
        -0.1986
      ],
      "orientation_vector": [
        0.0,
        1.0
      ],
      "half_bracket_size": 0.49990016001536186,
      "bond": [
        1,
        3
      ],
      "fragment": "F1",
      "backbone": true,
      "suspended_anchor_atom": null,
      "suspended_reason": null,
      "source_label": "F1/fragments[0]",
      "marker_id": "10",
      "side": "right",
      "connection_group": "$a",
      "marker_type_index": 2
    }
  ]
}
