
     RDKit          2D

  0  0  0  0  0  0  0  0  0  0999 V3000
M  V30 BEGIN CTAB
M  V30 COUNTS 16 17 1 0 0
M  V30 BEGIN ATOM
M  V30 1 H -4.433076 -0.631619 0.000000 0
M  V30 2 H 4.566867 -1.131619 0.000000 0
M  V30 3 C -3.433076 -0.631619 0.000000 0
M  V30 4 C -2.933069 0.234419 0.000000 0
M  V30 5 C -1.933054 0.234419 0.000000 0
M  V30 6 C -1.433047 -0.631619 0.000000 0
M  V30 7 C -1.933054 -1.497657 0.000000 0
M  V30 8 C -2.933069 -1.497657 0.000000 0
M  V30 9 N -0.433047 -0.631619 0.000000 0
M  V30 10 C 0.566953 -0.631619 0.000000 0
M  V30 11 C 1.066932 0.234369 0.000000 0
M  V30 12 C 2.066888 0.234369 0.000000 0
M  V30 13 C 2.566867 -0.631619 0.000000 0
M  V30 14 C 2.066888 -1.497607 0.000000 0
M  V30 15 C 1.066932 -1.497607 0.000000 0
M  V30 16 N 3.566867 -0.631619 0.000000 0
M  V30 END ATOM
M  V30 BEGIN BOND
M  V30 1 2 3 4
M  V30 2 1 4 5
M  V30 3 2 5 6
M  V30 4 1 6 7
M  V30 5 2 7 8
M  V30 6 1 6 9
M  V30 7 1 9 10
M  V30 8 2 10 11
M  V30 9 1 11 12
M  V30 10 2 12 13
M  V30 11 1 13 14
M  V30 12 2 14 15
M  V30 13 1 13 16
M  V30 14 1 8 3
M  V30 15 1 15 10
M  V30 16 1 1 3
M  V30 17 1 2 16
M  V30 END BOND
M  V30 BEGIN SGROUP
M  V30 1 SRU 0 ATOMS=(4 1 2 3 16) CBONDS=(2 16 17) -
M  V30 BRKXYZ=(9 -3.9331 1.1005 0 -3.9331 -2.3637 0 0 0 0) BRKXYZ=(9 4.0669 0.-
M  V30 8505 0 4.0669 -2.6137 0 0 0 0)
M  V30 END SGROUP
M  V30 END CTAB
M  END
>  <BIGSMILES_BRACKET_RECORDS_JSON>
{
  "records": [
    {
      "id": 0,
      "bracket_kind": "backbone",
      "pairing_id": "F1/fragments[0]",
      "group_id": "<1:3",
      "ru_midpoint": [
        -0.061980628253556436,
        -0.6003767430949171
      ],
      "bond_midpoint": [
        -3.933075761877002,
        -0.6316189777551089
      ],
      "orientation_vector": [
        0.0,
        1.0
      ],
      "half_bracket_size": 1.7320759110204373,
      "bond": [
        0,
        2
      ],
      "fragment": "F1",
      "backbone": true,
      "suspended_anchor_atom": null,
      "suspended_reason": null,
      "source_label": "F1/fragments[0]",
      "marker_id": "0",
      "side": "left",
      "connection_group": "<1",
      "marker_type_index": 3
    },
    {
      "id": 1,
      "bracket_kind": "backbone",
      "pairing_id": "F1/fragments[0]",
      "group_id": ">1:4",
      "ru_midpoint": [
        -0.061980628253556436,
        -0.6003767430949171
      ],
      "bond_midpoint": [
        4.06686668914147,
        -0.8816189777551084
      ],
      "orientation_vector": [
        0.0,
        1.0
      ],
      "half_bracket_size": 1.7320759110204373,
      "bond": [
        1,
        15
      ],
      "fragment": "F1",
      "backbone": true,
      "suspended_anchor_atom": null,
      "suspended_reason": null,
      "source_label": "F1/fragments[0]",
      "marker_id": "15",
      "side": "right",
      "connection_group": ">1",
      "marker_type_index": 4
    }
  ]
}
