
     RDKit          2D

  0  0  0  0  0  0  0  0  0  0999 V3000
M  V30 BEGIN CTAB
M  V30 COUNTS 20 21 1 0 0
M  V30 BEGIN ATOM
M  V30 1 H -4.348112 0.600298 0.000000 0
M  V30 2 H 3.981616 -0.631559 0.000000 0
M  V30 3 O -3.482096 1.100401 0.000000 0
M  V30 4 C -2.616081 0.600298 0.000000 0
M  V30 5 C -1.750085 1.100401 0.000000 0
M  V30 6 O -0.884070 0.600298 0.000000 0
M  V30 7 C -0.018074 1.100401 0.000000 0
M  V30 8 O 0.240713 2.066342 0.000000 0
M  V30 9 C 0.481896 0.234359 0.000000 0
M  V30 10 C -0.018302 -0.631559 0.000000 0
M  V30 11 C 0.481870 -1.497619 0.000000 0
M  V30 12 C 1.481723 -1.497461 0.000000 0
M  V30 13 C 1.981822 -0.631717 0.000000 0
M  V30 14 C 1.481750 0.234517 0.000000 0
M  V30 15 C 1.981848 1.100261 0.000000 0
M  V30 16 C 2.981801 1.100592 0.000000 0
M  V30 17 C 3.481874 0.234359 0.000000 0
M  V30 18 C 2.981675 -0.631559 0.000000 0
M  V30 19 C 3.481645 -1.497601 0.000000 0
M  V30 20 O 3.222860 -2.463336 0.000000 0
M  V30 END ATOM
M  V30 BEGIN BOND
M  V30 1 1 3 4
M  V30 2 1 4 5
M  V30 3 1 5 6
M  V30 4 1 6 7
M  V30 5 2 7 8
M  V30 6 1 7 9
M  V30 7 2 9 10
M  V30 8 1 10 11
M  V30 9 2 11 12
M  V30 10 1 12 13
M  V30 11 2 13 14
M  V30 12 1 14 15
M  V30 13 2 15 16
M  V30 14 1 16 17
M  V30 15 2 17 18
M  V30 16 1 18 19
M  V30 17 2 19 20
M  V30 18 1 14 9
M  V30 19 1 18 13
M  V30 20 1 1 3
M  V30 21 1 2 19
M  V30 END BOND
M  V30 BEGIN SGROUP
M  V30 1 SRU 0 ATOMS=(4 1 2 3 19) CBONDS=(2 20 21) -
M  V30 BRKXYZ=(9 -3.9151 3.4486 0 -3.9151 -1.7479 0 0 0 0) BRKXYZ=(9 3.7316 1.-
M  V30 5336 0 3.7316 -3.6628 0 0 0 0)
M  V30 END SGROUP
M  V30 END CTAB
M  END
>  <BIGSMILES_BRACKET_RECORDS_JSON>
{
  "records": [
    {
      "id": 0,
      "bracket_kind": "backbone",
      "pairing_id": "F1/fragments[0]",
      "group_id": "<1:3",
      "ru_midpoint": [
        0.4863291265327212,
        0.7175191759980111
      ],
      "bond_midpoint": [
        -3.9151039744670597,
        0.8503494108322083
      ],
      "orientation_vector": [
        0.0,
        1.0
      ],
      "half_bracket_size": 2.598211838032703,
      "bond": [
        0,
        2
      ],
      "fragment": "F1",
      "backbone": true,
      "suspended_anchor_atom": null,
      "suspended_reason": null,
      "source_label": "F1/fragments[0]",
      "marker_id": "0",
      "side": "left",
      "connection_group": "<1",
      "marker_type_index": 3
    },
    {
      "id": 1,
      "bracket_kind": "backbone",
      "pairing_id": "F1/fragments[0]",
      "group_id": ">1:4",
      "ru_midpoint": [
        0.4863291265327212,
        0.7175191759980111
      ],
      "bond_midpoint": [
        3.731630577130306,
        -1.0645798247719662
      ],
      "orientation_vector": [
        0.0,
        1.0
      ],
      "half_bracket_size": 2.598211838032703,
      "bond": [
        1,
        18
      ],
      "fragment": "F1",
      "backbone": true,
      "suspended_anchor_atom": null,
      "suspended_reason": null,
      "source_label": "F1/fragments[0]",
      "marker_id": "19",
      "side": "right",
      "connection_group": ">1",
      "marker_type_index": 4
    }
  ]
}
