
     RDKit          2D

  0  0  0  0  0  0  0  0  0  0999 V3000
M  V30 BEGIN CTAB
M  V30 COUNTS 11 11 1 0 0
M  V30 BEGIN ATOM
M  V30 1 H -3.000199 0.118394 0.000000 0
M  V30 2 H 2.999773 -0.881606 0.000000 0
M  V30 3 C -2.000199 -0.381606 0.000000 0
M  V30 4 C -1.000199 -0.381606 0.000000 0
M  V30 5 C -0.500206 0.484407 0.000000 0
M  V30 6 C 0.499780 0.484407 0.000000 0
M  V30 7 C 0.999773 -0.381606 0.000000 0
M  V30 8 C 0.499780 -1.247619 0.000000 0
M  V30 9 C -0.500206 -1.247619 0.000000 0
M  V30 10 Br -1.000162 -2.113568 0.000000 0
M  V30 11 C 1.999773 -0.381606 0.000000 0
M  V30 END ATOM
M  V30 BEGIN BOND
M  V30 1 1 3 4
M  V30 2 2 4 5
M  V30 3 1 5 6
M  V30 4 2 6 7
M  V30 5 1 7 8
M  V30 6 2 8 9
M  V30 7 1 9 10
M  V30 8 1 7 11
M  V30 9 1 9 4
M  V30 10 1 1 3
M  V30 11 1 2 11
M  V30 END BOND
M  V30 BEGIN SGROUP
M  V30 1 SRU 0 ATOMS=(4 1 2 3 11) CBONDS=(2 10 11) -
M  V30 BRKXYZ=(9 -2.5002 1.6004 0 -2.5002 -1.8636 0 0 0 0) BRKXYZ=(9 2.4998 1.-
M  V30 1004 0 2.4998 -2.3636 0 0 0 0)
M  V30 END SGROUP
M  V30 END CTAB
M  END
>  <BIGSMILES_BRACKET_RECORDS_JSON>
{
  "records": [
    {
      "id": 0,
      "bracket_kind": "backbone",
      "pairing_id": "F1/fragments[0]",
      "group_id": "$a:2",
      "ru_midpoint": [
        -0.00021040827680884888,
        -0.3816048280851567
      ],
      "bond_midpoint": [
        -2.5001988108066935,
        -0.13160641205955995
      ],
      "orientation_vector": [
        0.0,
        1.0
      ],
      "half_bracket_size": 1.7320259682381898,
      "bond": [
        0,
        2
      ],
      "fragment": "F1",
      "backbone": true,
      "suspended_anchor_atom": null,
      "suspended_reason": null,
      "source_label": "F1/fragments[0]",
      "marker_id": "0",
      "side": "left",
      "connection_group": "$a",
      "marker_type_index": 2
    },
    {
      "id": 1,
      "bracket_kind": "backbone",
      "pairing_id": "F1/fragments[0]",
      "group_id": "$a:2",
      "ru_midpoint": [
        -0.00021040827680884888,
        -0.3816048280851567
      ],
      "bond_midpoint": [
        2.4997725072047876,
        -0.6316064120595604
      ],
      "orientation_vector": [
        0.0,
        1.0
      ],
      "half_bracket_size": 1.7320259682381898,
      "bond": [
        1,
        10
      ],
      "fragment": "F1",
      "backbone": true,
      "suspended_anchor_atom": null,
      "suspended_reason": null,
      "source_label": "F1/fragments[0]",
      "marker_id": "10",
      "side": "right",
      "connection_group": "$a",
      "marker_type_index": 2
    }
  ]
}
