
     RDKit          2D

  0  0  0  0  0  0  0  0  0  0999 V3000
M  V30 BEGIN CTAB
M  V30 COUNTS 14 14 1 0 0
M  V30 BEGIN ATOM
M  V30 1 H -4.165444 -0.381671 0.000000 0
M  V30 2 H 4.298872 -0.881671 0.000000 0
M  V30 3 O -3.299424 -0.881572 0.000000 0
M  V30 4 C -2.433403 -0.381671 0.000000 0
M  V30 5 C -1.567304 -0.881572 0.000000 0
M  V30 6 O -0.701169 -0.381671 0.000000 0
M  V30 7 C 0.298831 -0.381671 0.000000 0
M  V30 8 C 0.798841 0.484372 0.000000 0
M  V30 9 C 1.798862 0.484372 0.000000 0
M  V30 10 C 2.298872 -0.381671 0.000000 0
M  V30 11 C 1.798862 -1.247714 0.000000 0
M  V30 12 C 0.798841 -1.247714 0.000000 0
M  V30 13 C 3.298872 -0.381671 0.000000 0
M  V30 14 O 3.557624 -1.347617 0.000000 0
M  V30 END ATOM
M  V30 BEGIN BOND
M  V30 1 1 3 4
M  V30 2 1 4 5
M  V30 3 1 5 6
M  V30 4 1 6 7
M  V30 5 2 7 8
M  V30 6 1 8 9
M  V30 7 2 9 10
M  V30 8 1 10 11
M  V30 9 2 11 12
M  V30 10 1 10 13
M  V30 11 2 13 14
M  V30 12 1 12 7
M  V30 13 1 1 3
M  V30 14 1 2 13
M  V30 END BOND
M  V30 BEGIN SGROUP
M  V30 1 SRU 0 ATOMS=(4 1 2 3 13) CBONDS=(2 13 14) -
M  V30 BRKXYZ=(9 -3.7324 1.1005 0 -3.7324 -2.3637 0 0 0 0) BRKXYZ=(9 3.7989 1.-
M  V30 1004 0 3.7989 -2.3638 0 0 0 0)
M  V30 END SGROUP
M  V30 END CTAB
M  END
>  <BIGSMILES_BRACKET_RECORDS_JSON>
{
  "records": [
    {
      "id": 0,
      "bracket_kind": "backbone",
      "pairing_id": "F1/fragments[0]",
      "group_id": "<1:3",
      "ru_midpoint": [
        0.3047200567446386,
        -0.4201466164191787
      ],
      "bond_midpoint": [
        -3.732433757289386,
        -0.6316216397592702
      ],
      "orientation_vector": [
        0.0,
        1.0
      ],
      "half_bracket_size": 1.7320865590370846,
      "bond": [
        0,
        2
      ],
      "fragment": "F1",
      "backbone": true,
      "suspended_anchor_atom": null,
      "suspended_reason": null,
      "source_label": "F1/fragments[0]",
      "marker_id": "0",
      "side": "left",
      "connection_group": "<1",
      "marker_type_index": 3
    },
    {
      "id": 1,
      "bracket_kind": "backbone",
      "pairing_id": "F1/fragments[0]",
      "group_id": ">1:4",
      "ru_midpoint": [
        0.3047200567446386,
        -0.4201466164191787
      ],
      "bond_midpoint": [
        3.7988723041019004,
        -0.6316711398341095
      ],
      "orientation_vector": [
        0.0,
        1.0
      ],
      "half_bracket_size": 1.7320865590370846,
      "bond": [
        1,
        12
      ],
      "fragment": "F1",
      "backbone": true,
      "suspended_anchor_atom": null,
      "suspended_reason": null,
      "source_label": "F1/fragments[0]",
      "marker_id": "13",
      "side": "right",
      "connection_group": ">1",
      "marker_type_index": 4
    }
  ]
}
