
     RDKit          2D

  0  0  0  0  0  0  0  0  0  0999 V3000
M  V30 BEGIN CTAB
M  V30 COUNTS 14 14 1 0 0
M  V30 BEGIN ATOM
M  V30 1 H -3.000185 0.118694 0.000000 0
M  V30 2 H 2.999786 -0.881306 0.000000 0
M  V30 3 C -2.000185 -0.381306 0.000000 0
M  V30 4 F -2.000185 -1.381331 0.000000 0
M  V30 5 F -2.000185 0.618625 0.000000 0
M  V30 6 C -1.000185 -0.381306 0.000000 0
M  V30 7 C -0.500192 0.484706 0.000000 0
M  V30 8 C 0.499793 0.484706 0.000000 0
M  V30 9 C 0.999786 -0.381306 0.000000 0
M  V30 10 C 0.499793 -1.247319 0.000000 0
M  V30 11 C -0.500192 -1.247319 0.000000 0
M  V30 12 C 1.999786 -0.381306 0.000000 0
M  V30 13 F 1.999786 -1.381331 0.000000 0
M  V30 14 F 1.999786 0.618625 0.000000 0
M  V30 END ATOM
M  V30 BEGIN BOND
M  V30 1 1 3 4
M  V30 2 1 3 5
M  V30 3 1 3 6
M  V30 4 2 6 7
M  V30 5 1 7 8
M  V30 6 2 8 9
M  V30 7 1 9 10
M  V30 8 2 10 11
M  V30 9 1 9 12
M  V30 10 1 12 13
M  V30 11 1 12 14
M  V30 12 1 11 6
M  V30 13 1 1 3
M  V30 14 1 2 12
M  V30 END BOND
M  V30 BEGIN SGROUP
M  V30 1 SRU 0 ATOMS=(4 1 2 3 12) CBONDS=(2 13 14) -
M  V30 BRKXYZ=(9 -2.5002 1.6007 0 -2.5002 -1.8633 0 0 0 0) BRKXYZ=(9 2.4998 1.-
M  V30 1007 0 2.4998 -2.3633 0 0 0 0)
M  V30 END SGROUP
M  V30 END CTAB
M  END
>  <BIGSMILES_BRACKET_RECORDS_JSON>
{
  "records": [
    {
      "id": 0,
      "bracket_kind": "backbone",
      "pairing_id": "F1/fragments[0]",
      "group_id": "$a:2",
      "ru_midpoint": [
        -0.00019943418023105064,
        -0.3813064719038146
      ],
      "bond_midpoint": [
        -2.5001850466383013,
        -0.13130647190381464
      ],
      "orientation_vector": [
        0.0,
        1.0
      ],
      "half_bracket_size": 1.732025887615259,
      "bond": [
        0,
        2
      ],
      "fragment": "F1",
      "backbone": true,
      "suspended_anchor_atom": null,
      "suspended_reason": null,
      "source_label": "F1/fragments[0]",
      "marker_id": "0",
      "side": "left",
      "connection_group": "$a",
      "marker_type_index": 2
    },
    {
      "id": 1,
      "bracket_kind": "backbone",
      "pairing_id": "F1/fragments[0]",
      "group_id": "$a:2",
      "ru_midpoint": [
        -0.00019943418023105064,
        -0.3813064719038146
      ],
      "bond_midpoint": [
        2.499786178277839,
        -0.6313064719038155
      ],
      "orientation_vector": [
        0.0,
        1.0
      ],
      "half_bracket_size": 1.732025887615259,
      "bond": [
        1,
        11
      ],
      "fragment": "F1",
      "backbone": true,
      "suspended_anchor_atom": null,
      "suspended_reason": null,
      "source_label": "F1/fragments[0]",
      "marker_id": "13",
      "side": "right",
      "connection_group": "$a",
      "marker_type_index": 2
    }
  ]
}
