
     RDKit          2D

  0  0  0  0  0  0  0  0  0  0999 V3000
M  V30 BEGIN CTAB
M  V30 COUNTS 16 17 1 0 0
M  V30 BEGIN ATOM
M  V30 1 H -1.299298 -0.448565 0.000000 0
M  V30 2 H 1.298949 0.051365 0.000000 0
M  V30 3 C -0.433216 0.051365 0.000000 0
M  V30 4 C 0.432866 -0.448565 0.000000 0
M  V30 5 C 0.432866 -1.448367 0.000000 0
M  V30 6 C -0.432836 -1.948436 0.000000 0
M  V30 7 C -0.433036 -2.948438 0.000000 0
M  V30 8 C 0.433065 -3.448571 0.000000 0
M  V30 9 C 0.433165 -4.448373 0.000000 0
M  V30 10 C 1.299167 -4.948307 0.000000 0
M  V30 11 C 1.298966 -5.948308 0.000000 0
M  V30 12 C 0.433164 -6.448377 0.000000 0
M  V30 13 C -0.433137 -5.948444 0.000000 0
M  V30 14 C -0.432937 -4.948442 0.000000 0
M  V30 15 C 1.298867 -2.948502 0.000000 0
M  V30 16 C 1.299068 -1.948501 0.000000 0
M  V30 END ATOM
M  V30 BEGIN BOND
M  V30 1 1 3 4
M  V30 2 1 4 5
M  V30 3 2 5 6
M  V30 4 1 6 7
M  V30 5 2 7 8
M  V30 6 1 8 9
M  V30 7 2 9 10
M  V30 8 1 10 11
M  V30 9 2 11 12
M  V30 10 1 12 13
M  V30 11 2 13 14
M  V30 12 1 8 15
M  V30 13 2 15 16
M  V30 14 1 16 5
M  V30 15 1 14 9
M  V30 16 1 1 3
M  V30 17 1 2 4
M  V30 END BOND
M  V30 BEGIN SGROUP
M  V30 1 SRU 0 ATOMS=(4 1 2 3 4) CBONDS=(2 16 17) -
M  V30 BRKXYZ=(9 -0.8663 0.3013 0 -0.8663 -0.6985 0 0 0 0) BRKXYZ=(9 0.8659 0.-
M  V30 3013 0 0.8659 -0.6985 0 0 0 0)
M  V30 END SGROUP
M  V30 END CTAB
M  END
>  <BIGSMILES_BRACKET_RECORDS_JSON>
{
  "records": [
    {
      "id": 0,
      "bracket_kind": "backbone",
      "pairing_id": "F1/fragments[0]",
      "group_id": "$a:2",
      "ru_midpoint": [
        -0.0001809376339856339,
        -0.1986106791250488
      ],
      "bond_midpoint": [
        -0.8662570571135046,
        -0.19859999999999944
      ],
      "orientation_vector": [
        0.0,
        1.0
      ],
      "half_bracket_size": 0.4999297075084188,
      "bond": [
        0,
        2
      ],
      "fragment": "F1",
      "backbone": true,
      "suspended_anchor_atom": null,
      "suspended_reason": null,
      "source_label": "F1/fragments[0]",
      "marker_id": "0",
      "side": "left",
      "connection_group": "$a",
      "marker_type_index": 2
    },
    {
      "id": 1,
      "bracket_kind": "backbone",
      "pairing_id": "F1/fragments[0]",
      "group_id": "$a:2",
      "ru_midpoint": [
        -0.0001809376339856339,
        -0.1986106791250488
      ],
      "bond_midpoint": [
        0.8659075165347931,
        -0.19859999999999944
      ],
      "orientation_vector": [
        0.0,
        1.0
      ],
      "half_bracket_size": 0.4999297075084188,
      "bond": [
        1,
        3
      ],
      "fragment": "F1",
      "backbone": true,
      "suspended_anchor_atom": null,
      "suspended_reason": null,
      "source_label": "F1/fragments[0]",
      "marker_id": "15",
      "side": "right",
      "connection_group": "$a",
      "marker_type_index": 2
    }
  ]
}
