
     RDKit          2D

  0  0  0  0  0  0  0  0  0  0999 V3000
M  V30 BEGIN CTAB
M  V30 COUNTS 17 19 1 0 0
M  V30 BEGIN ATOM
M  V30 1 H -1.299102 -0.448549 0.000000 0
M  V30 2 H 1.298545 0.051349 0.000000 0
M  V30 3 C -0.433220 0.051349 0.000000 0
M  V30 4 C 0.432662 -0.448549 0.000000 0
M  V30 5 N 0.432662 -1.449354 0.000000 0
M  V30 6 C -0.376619 -2.036369 0.000000 0
M  V30 7 C -0.066658 -2.987565 0.000000 0
M  V30 8 C 0.932347 -2.987559 0.000000 0
M  V30 9 C 1.242188 -2.036745 0.000000 0
M  V30 10 C 2.219860 -1.828270 0.000000 0
M  V30 11 C 2.888485 -2.572212 0.000000 0
M  V30 12 C 2.580242 -3.523431 0.000000 0
M  V30 13 C 1.601974 -3.730704 0.000000 0
M  V30 14 C -0.736836 -3.730226 0.000000 0
M  V30 15 C -1.713577 -3.522502 0.000000 0
M  V30 16 C -2.023937 -2.571305 0.000000 0
M  V30 17 C -1.353760 -1.828844 0.000000 0
M  V30 END ATOM
M  V30 BEGIN BOND
M  V30 1 1 3 4
M  V30 2 1 4 5
M  V30 3 1 5 6
M  V30 4 2 6 7
M  V30 5 1 7 8
M  V30 6 2 8 9
M  V30 7 1 9 10
M  V30 8 2 10 11
M  V30 9 1 11 12
M  V30 10 2 12 13
M  V30 11 1 7 14
M  V30 12 2 14 15
M  V30 13 1 15 16
M  V30 14 2 16 17
M  V30 15 1 9 5
M  V30 16 1 17 6
M  V30 17 1 13 8
M  V30 18 1 1 3
M  V30 19 1 2 4
M  V30 END BOND
M  V30 BEGIN SGROUP
M  V30 1 SRU 0 ATOMS=(4 1 2 3 4) CBONDS=(2 18 19) -
M  V30 BRKXYZ=(9 -0.8662 0.3013 0 -0.8662 -0.6985 0 0 0 0) BRKXYZ=(9 0.8656 0.-
M  V30 3013 0 0.8656 -0.6985 0 0 0 0)
M  V30 END SGROUP
M  V30 END CTAB
M  END
>  <BIGSMILES_BRACKET_RECORDS_JSON>
{
  "records": [
    {
      "id": 0,
      "bracket_kind": "backbone",
      "pairing_id": "F1/fragments[0]",
      "group_id": "$a:2",
      "ru_midpoint": [
        -0.00025882980471236827,
        -0.19856570960826428
      ],
      "bond_midpoint": [
        -0.8661607621700871,
        -0.1985999999999999
      ],
      "orientation_vector": [
        0.0,
        1.0
      ],
      "half_bracket_size": 0.49989762867348286,
      "bond": [
        0,
        2
      ],
      "fragment": "F1",
      "backbone": true,
      "suspended_anchor_atom": null,
      "suspended_reason": null,
      "source_label": "F1/fragments[0]",
      "marker_id": "0",
      "side": "left",
      "connection_group": "$a",
      "marker_type_index": 2
    },
    {
      "id": 1,
      "bracket_kind": "backbone",
      "pairing_id": "F1/fragments[0]",
      "group_id": "$a:2",
      "ru_midpoint": [
        -0.00025882980471236827,
        -0.19856570960826428
      ],
      "bond_midpoint": [
        0.8656034721835721,
        -0.1985999999999999
      ],
      "orientation_vector": [
        0.0,
        1.0
      ],
      "half_bracket_size": 0.49989762867348286,
      "bond": [
        1,
        3
      ],
      "fragment": "F1",
      "backbone": true,
      "suspended_anchor_atom": null,
      "suspended_reason": null,
      "source_label": "F1/fragments[0]",
      "marker_id": "16",
      "side": "right",
      "connection_group": "$a",
      "marker_type_index": 2
    }
  ]
}
