
     RDKit          2D

  0  0  0  0  0  0  0  0  0  0999 V3000
M  V30 BEGIN CTAB
M  V30 COUNTS 10 9 1 0 0
M  V30 BEGIN ATOM
M  V30 1 H -1.299270 -0.448583 0.000000 0
M  V30 2 H 1.298950 0.051383 0.000000 0
M  V30 3 C -0.433197 0.051383 0.000000 0
M  V30 4 C 0.432877 -0.448583 0.000000 0
M  V30 5 C 0.432877 0.551442 0.000000 0
M  V30 6 N 0.433050 1.551366 0.000000 0
M  V30 7 C 0.432877 -1.448615 0.000000 0
M  V30 8 O -0.433096 -1.948706 0.000000 0
M  V30 9 O 1.299023 -1.948455 0.000000 0
M  V30 10 C 1.299023 -2.948487 0.000000 0
M  V30 END ATOM
M  V30 BEGIN BOND
M  V30 1 1 3 4
M  V30 2 1 4 5
M  V30 3 3 5 6
M  V30 4 1 4 7
M  V30 5 2 7 8
M  V30 6 1 7 9
M  V30 7 1 9 10
M  V30 8 1 1 3
M  V30 9 1 2 4
M  V30 END BOND
M  V30 BEGIN SGROUP
M  V30 1 SRU 0 ATOMS=(4 1 2 3 4) CBONDS=(2 8 9) -
M  V30 BRKXYZ=(9 -0.8662 0.3014 0 -0.8662 -0.6986 0 0 0 0) BRKXYZ=(9 0.8659 0.-
M  V30 3014 0 0.8659 -0.6986 0 0 0 0)
M  V30 END SGROUP
M  V30 END CTAB
M  END
>  <BIGSMILES_BRACKET_RECORDS_JSON>
{
  "records": [
    {
      "id": 0,
      "bracket_kind": "backbone",
      "pairing_id": "F1/fragments[0]",
      "group_id": "$a:2",
      "ru_midpoint": [
        -0.0001697898050415647,
        -0.19861711557492626
      ],
      "bond_midpoint": [
        -0.8662334556905962,
        -0.19860000000000033
      ],
      "orientation_vector": [
        0.0,
        1.0
      ],
      "half_bracket_size": 0.49996592864168043,
      "bond": [
        0,
        2
      ],
      "fragment": "F1",
      "backbone": true,
      "suspended_anchor_atom": null,
      "suspended_reason": null,
      "source_label": "F1/fragments[0]",
      "marker_id": "0",
      "side": "left",
      "connection_group": "$a",
      "marker_type_index": 2
    },
    {
      "id": 1,
      "bracket_kind": "backbone",
      "pairing_id": "F1/fragments[0]",
      "group_id": "$a:2",
      "ru_midpoint": [
        -0.0001697898050415647,
        -0.19861711557492626
      ],
      "bond_midpoint": [
        0.865913639907768,
        -0.19860000000000033
      ],
      "orientation_vector": [
        0.0,
        1.0
      ],
      "half_bracket_size": 0.49996592864168043,
      "bond": [
        1,
        3
      ],
      "fragment": "F1",
      "backbone": true,
      "suspended_anchor_atom": null,
      "suspended_reason": null,
      "source_label": "F1/fragments[0]",
      "marker_id": "9",
      "side": "right",
      "connection_group": "$a",
      "marker_type_index": 2
    }
  ]
}
