
     RDKit          2D

  0  0  0  0  0  0  0  0  0  0999 V3000
M  V30 BEGIN CTAB
M  V30 COUNTS 21 23 1 0 0
M  V30 BEGIN ATOM
M  V30 1 H -2.567226 0.118367 0.000000 0
M  V30 2 H 2.432806 -0.381633 0.000000 0
M  V30 3 O -1.567226 -0.381633 0.000000 0
M  V30 4 C -0.567226 -0.381633 0.000000 0
M  V30 5 C -0.067218 0.484406 0.000000 0
M  V30 6 C -0.567145 1.350306 0.000000 0
M  V30 7 C -1.567191 1.350510 0.000000 0
M  V30 8 C -2.067125 2.216576 0.000000 0
M  V30 9 C -1.567014 3.082437 0.000000 0
M  V30 10 C -0.567067 3.082406 0.000000 0
M  V30 11 C -0.067133 2.216340 0.000000 0
M  V30 12 C 0.932798 0.484406 0.000000 0
M  V30 13 C 1.432806 -0.381633 0.000000 0
M  V30 14 C 0.932798 -1.247673 0.000000 0
M  V30 15 C -0.067218 -1.247673 0.000000 0
M  V30 16 C -0.567247 -2.113748 0.000000 0
M  V30 17 C -0.067225 -2.979777 0.000000 0
M  V30 18 C -0.567404 -3.845752 0.000000 0
M  V30 19 C -1.567406 -3.845698 0.000000 0
M  V30 20 C -2.067229 -2.979670 0.000000 0
M  V30 21 C -1.567249 -2.113695 0.000000 0
M  V30 END ATOM
M  V30 BEGIN BOND
M  V30 1 1 3 4
M  V30 2 2 4 5
M  V30 3 1 5 6
M  V30 4 2 6 7
M  V30 5 1 7 8
M  V30 6 2 8 9
M  V30 7 1 9 10
M  V30 8 2 10 11
M  V30 9 1 5 12
M  V30 10 2 12 13
M  V30 11 1 13 14
M  V30 12 2 14 15
M  V30 13 1 15 16
M  V30 14 2 16 17
M  V30 15 1 17 18
M  V30 16 2 18 19
M  V30 17 1 19 20
M  V30 18 2 20 21
M  V30 19 1 15 4
M  V30 20 1 21 16
M  V30 21 1 11 6
M  V30 22 1 1 3
M  V30 23 1 2 13
M  V30 END BOND
M  V30 BEGIN SGROUP
M  V30 1 SRU 0 ATOMS=(4 1 2 3 13) CBONDS=(2 22 23) -
M  V30 BRKXYZ=(9 -2.0672 1.6004 0 -2.0672 -1.8637 0 0 0 0) BRKXYZ=(9 1.9328 1.-
M  V30 3504 0 1.9328 -2.1137 0 0 0 0)
M  V30 END SGROUP
M  V30 END CTAB
M  END
>  <BIGSMILES_BRACKET_RECORDS_JSON>
{
  "records": [
    {
      "id": 0,
      "bracket_kind": "backbone",
      "pairing_id": "F1/fragments[0]",
      "group_id": "<1:3",
      "ru_midpoint": [
        0.0473587479835339,
        -0.4371857800897134
      ],
      "bond_midpoint": [
        -2.067226334971989,
        -0.13163321794813568
      ],
      "orientation_vector": [
        0.0,
        1.0
      ],
      "half_bracket_size": 1.7320789903409382,
      "bond": [
        0,
        2
      ],
      "fragment": "F1",
      "backbone": true,
      "suspended_anchor_atom": null,
      "suspended_reason": null,
      "source_label": "F1/fragments[0]",
      "marker_id": "0",
      "side": "left",
      "connection_group": "<1",
      "marker_type_index": 3
    },
    {
      "id": 1,
      "bracket_kind": "backbone",
      "pairing_id": "F1/fragments[0]",
      "group_id": ">1:4",
      "ru_midpoint": [
        0.0473587479835339,
        -0.4371857800897134
      ],
      "bond_midpoint": [
        1.9328062076900823,
        -0.3816332179481362
      ],
      "orientation_vector": [
        0.0,
        1.0
      ],
      "half_bracket_size": 1.7320789903409382,
      "bond": [
        1,
        12
      ],
      "fragment": "F1",
      "backbone": true,
      "suspended_anchor_atom": null,
      "suspended_reason": null,
      "source_label": "F1/fragments[0]",
      "marker_id": "20",
      "side": "right",
      "connection_group": ">1",
      "marker_type_index": 4
    }
  ]
}
