
     RDKit          2D

  0  0  0  0  0  0  0  0  0  0999 V3000
M  V30 BEGIN CTAB
M  V30 COUNTS 42 47 1 0 0
M  V30 BEGIN ATOM
M  V30 1 H -8.264321 0.117984 0.000000 0
M  V30 2 H 8.397739 0.618475 0.000000 0
M  V30 3 C -7.398295 0.617984 0.000000 0
M  V30 4 O -7.398295 1.618009 0.000000 0
M  V30 5 C -6.532270 0.117984 0.000000 0
M  V30 6 C -5.666258 0.617977 0.000000 0
M  V30 7 C -4.800245 0.117984 0.000000 0
M  V30 8 C -4.800245 -0.882001 0.000000 0
M  V30 9 C -5.666258 -1.381993 0.000000 0
M  V30 10 C -6.532270 -0.882001 0.000000 0
M  V30 11 C -3.934220 -1.382001 0.000000 0
M  V30 12 C -4.742834 -1.970340 0.000000 0
M  V30 13 C -4.435380 -2.921484 0.000000 0
M  V30 14 C -5.103247 -3.662796 0.000000 0
M  V30 15 C -6.082961 -3.456917 0.000000 0
M  V30 16 C -6.390477 -2.505582 0.000000 0
M  V30 17 C -5.722843 -1.761612 0.000000 0
M  V30 18 C -3.434550 -2.920699 0.000000 0
M  V30 19 O -2.847717 -3.731135 0.000000 0
M  V30 20 O -3.125605 -1.970769 0.000000 0
M  V30 21 C -3.068194 -0.882001 0.000000 0
M  V30 22 C -3.068194 0.118375 0.000000 0
M  V30 23 C -2.201844 0.618563 0.000000 0
M  V30 24 C -1.335493 0.118375 0.000000 0
M  V30 25 C -1.335493 -0.882001 0.000000 0
M  V30 26 C -2.201844 -1.382189 0.000000 0
M  V30 27 C -0.469467 0.618375 0.000000 0
M  V30 28 O -0.469467 1.618307 0.000000 0
M  V30 29 O 0.396385 0.118475 0.000000 0
M  V30 30 C 1.396385 0.118475 0.000000 0
M  V30 31 C 1.896550 0.984786 0.000000 0
M  V30 32 C 2.896881 0.984786 0.000000 0
M  V30 33 C 3.397046 0.118475 0.000000 0
M  V30 34 C 2.896881 -0.747837 0.000000 0
M  V30 35 C 1.896550 -0.747837 0.000000 0
M  V30 36 C 4.397046 0.118475 0.000000 0
M  V30 37 C 4.897219 0.984801 0.000000 0
M  V30 38 C 5.897566 0.984801 0.000000 0
M  V30 39 C 6.397739 0.118475 0.000000 0
M  V30 40 C 5.897566 -0.747851 0.000000 0
M  V30 41 C 4.897219 -0.747851 0.000000 0
M  V30 42 O 7.397739 0.118475 0.000000 0
M  V30 END ATOM
M  V30 BEGIN BOND
M  V30 1 2 3 4
M  V30 2 1 3 5
M  V30 3 2 5 6
M  V30 4 1 6 7
M  V30 5 2 7 8
M  V30 6 1 8 9
M  V30 7 2 9 10
M  V30 8 1 8 11
M  V30 9 1 11 12
M  V30 10 1 12 13
M  V30 11 2 13 14
M  V30 12 1 14 15
M  V30 13 2 15 16
M  V30 14 1 16 17
M  V30 15 1 13 18
M  V30 16 2 18 19
M  V30 17 1 18 20
M  V30 18 1 11 21
M  V30 19 2 21 22
M  V30 20 1 22 23
M  V30 21 2 23 24
M  V30 22 1 24 25
M  V30 23 2 25 26
M  V30 24 1 24 27
M  V30 25 2 27 28
M  V30 26 1 27 29
M  V30 27 1 29 30
M  V30 28 2 30 31
M  V30 29 1 31 32
M  V30 30 2 32 33
M  V30 31 1 33 34
M  V30 32 2 34 35
M  V30 33 1 33 36
M  V30 34 2 36 37
M  V30 35 1 37 38
M  V30 36 2 38 39
M  V30 37 1 39 40
M  V30 38 2 40 41
M  V30 39 1 39 42
M  V30 40 1 10 5
M  V30 41 1 20 11
M  V30 42 1 26 21
M  V30 43 1 35 30
M  V30 44 1 41 36
M  V30 45 2 17 12
M  V30 46 1 1 3
M  V30 47 1 2 42
M  V30 END BOND
M  V30 BEGIN SGROUP
M  V30 1 SRU 0 ATOMS=(4 1 2 3 42) CBONDS=(2 46 47) -
M  V30 BRKXYZ=(9 -7.8313 2.7350 0 -7.8313 -1.9990 0 0 0 0) BRKXYZ=(9 7.8977 2.-
M  V30 7355 0 7.8977 -1.9985 0 0 0 0)
M  V30 END SGROUP
M  V30 END CTAB
M  END
>  <BIGSMILES_BRACKET_RECORDS_JSON>
{
  "records": [
    {
      "id": 0,
      "bracket_kind": "backbone",
      "pairing_id": "F1/fragments[0]",
      "group_id": "<1:3",
      "ru_midpoint": [
        -0.07663260508811387,
        -0.07526994812567778
      ],
      "bond_midpoint": [
        -7.831308179532773,
        0.3679843365838915
      ],
      "orientation_vector": [
        0.0,
        1.0
      ],
      "half_bracket_size": 2.3669892210915298,
      "bond": [
        0,
        2
      ],
      "fragment": "F1",
      "backbone": true,
      "suspended_anchor_atom": null,
      "suspended_reason": null,
      "source_label": "F1/fragments[0]",
      "marker_id": "0",
      "side": "left",
      "connection_group": "<1",
      "marker_type_index": 3
    },
    {
      "id": 1,
      "bracket_kind": "backbone",
      "pairing_id": "F1/fragments[0]",
      "group_id": ">1:4",
      "ru_midpoint": [
        -0.07663260508811387,
        -0.07526994812567778
      ],
      "bond_midpoint": [
        7.897739383362973,
        0.36847490713934095
      ],
      "orientation_vector": [
        0.0,
        1.0
      ],
      "half_bracket_size": 2.3669892210915298,
      "bond": [
        1,
        41
      ],
      "fragment": "F1",
      "backbone": true,
      "suspended_anchor_atom": null,
      "suspended_reason": null,
      "source_label": "F1/fragments[0]",
      "marker_id": "41",
      "side": "right",
      "connection_group": ">1",
      "marker_type_index": 4
    }
  ]
}
