
     RDKit          2D

  0  0  0  0  0  0  0  0  0  0999 V3000
M  V30 BEGIN CTAB
M  V30 COUNTS 32 36 1 0 0
M  V30 BEGIN ATOM
M  V30 1 H -6.904957 -0.698646 0.000000 0
M  V30 2 H 6.904558 -0.698466 0.000000 0
M  V30 3 C -5.904957 -0.698646 0.000000 0
M  V30 4 C -5.404964 0.167367 0.000000 0
M  V30 5 C -4.404979 0.167367 0.000000 0
M  V30 6 C -3.904986 -0.698646 0.000000 0
M  V30 7 C -4.404979 -1.564659 0.000000 0
M  V30 8 C -5.404964 -1.564659 0.000000 0
M  V30 9 C -2.904986 -0.698646 0.000000 0
M  V30 10 O -2.904986 -1.698571 0.000000 0
M  V30 11 C -1.904986 -0.698646 0.000000 0
M  V30 12 C -1.405000 0.167354 0.000000 0
M  V30 13 C -0.405029 0.167354 0.000000 0
M  V30 14 C 0.094957 -0.698646 0.000000 0
M  V30 15 C -0.405029 -1.564646 0.000000 0
M  V30 16 C -1.405000 -1.564646 0.000000 0
M  V30 17 N 1.094957 -0.698646 0.000000 0
M  V30 18 C 1.682799 0.110388 0.000000 0
M  V30 19 O 1.373741 1.061429 0.000000 0
M  V30 20 C 2.633754 -0.198467 0.000000 0
M  V30 21 C 2.633760 -1.198567 0.000000 0
M  V30 22 C 1.682915 -1.507513 0.000000 0
M  V30 23 O 1.374022 -2.458553 0.000000 0
M  V30 24 C 3.499764 -1.698655 0.000000 0
M  V30 25 C 4.365761 -1.198642 0.000000 0
M  V30 26 C 4.365754 -0.198741 0.000000 0
M  V30 27 C 3.499751 0.301446 0.000000 0
M  V30 28 C 5.316800 0.110304 0.000000 0
M  V30 29 O 5.625764 1.061356 0.000000 0
M  V30 30 N 5.904558 -0.698562 0.000000 0
M  V30 31 C 5.316916 -1.507596 0.000000 0
M  V30 32 O 5.626045 -2.458650 0.000000 0
M  V30 END ATOM
M  V30 BEGIN BOND
M  V30 1 2 3 4
M  V30 2 1 4 5
M  V30 3 2 5 6
M  V30 4 1 6 7
M  V30 5 2 7 8
M  V30 6 1 6 9
M  V30 7 2 9 10
M  V30 8 1 9 11
M  V30 9 2 11 12
M  V30 10 1 12 13
M  V30 11 2 13 14
M  V30 12 1 14 15
M  V30 13 2 15 16
M  V30 14 1 14 17
M  V30 15 1 17 18
M  V30 16 2 18 19
M  V30 17 1 18 20
M  V30 18 2 20 21
M  V30 19 1 21 22
M  V30 20 2 22 23
M  V30 21 1 21 24
M  V30 22 2 24 25
M  V30 23 1 25 26
M  V30 24 2 26 27
M  V30 25 1 26 28
M  V30 26 2 28 29
M  V30 27 1 28 30
M  V30 28 1 30 31
M  V30 29 2 31 32
M  V30 30 1 8 3
M  V30 31 1 16 11
M  V30 32 1 22 17
M  V30 33 1 31 25
M  V30 34 1 27 20
M  V30 35 1 1 3
M  V30 36 1 2 30
M  V30 END BOND
M  V30 BEGIN SGROUP
M  V30 1 SRU 0 ATOMS=(4 1 2 3 30) CBONDS=(2 35 36) -
M  V30 BRKXYZ=(9 -6.4050 1.3015 0 -6.4050 -2.6987 0 0 0 0) BRKXYZ=(9 6.4046 1.-
M  V30 3016 0 6.4046 -2.6986 0 0 0 0)
M  V30 END SGROUP
M  V30 END CTAB
M  END
>  <BIGSMILES_BRACKET_RECORDS_JSON>
{
  "records": [
    {
      "id": 0,
      "bracket_kind": "backbone",
      "pairing_id": "F1/fragments[0]",
      "group_id": "<1:3",
      "ru_midpoint": [
        0.15674772079397137,
        -0.6986208354321248
      ],
      "bond_midpoint": [
        -6.404957056847637,
        -0.69864605509079
      ],
      "orientation_vector": [
        0.0,
        1.0
      ],
      "half_bracket_size": 2.0001006399261705,
      "bond": [
        0,
        2
      ],
      "fragment": "F1",
      "backbone": true,
      "suspended_anchor_atom": null,
      "suspended_reason": null,
      "source_label": "F1/fragments[0]",
      "marker_id": "0",
      "side": "left",
      "connection_group": "<1",
      "marker_type_index": 3
    },
    {
      "id": 1,
      "bracket_kind": "backbone",
      "pairing_id": "F1/fragments[0]",
      "group_id": ">1:4",
      "ru_midpoint": [
        0.15674772079397137,
        -0.6986208354321248
      ],
      "bond_midpoint": [
        6.404558190800069,
        -0.6985143820912602
      ],
      "orientation_vector": [
        0.0,
        1.0
      ],
      "half_bracket_size": 2.0001006399261705,
      "bond": [
        1,
        29
      ],
      "fragment": "F1",
      "backbone": true,
      "suspended_anchor_atom": null,
      "suspended_reason": null,
      "source_label": "F1/fragments[0]",
      "marker_id": "31",
      "side": "right",
      "connection_group": ">1",
      "marker_type_index": 4
    }
  ]
}
