
     RDKit          2D

  0  0  0  0  0  0  0  0  0  0999 V3000
M  V30 BEGIN CTAB
M  V30 COUNTS 28 32 1 0 0
M  V30 BEGIN ATOM
M  V30 1 H -6.330236 -0.381556 0.000000 0
M  V30 2 H 6.329838 -0.381565 0.000000 0
M  V30 3 C -5.330236 -0.381556 0.000000 0
M  V30 4 C -4.830244 0.484457 0.000000 0
M  V30 5 C -3.830258 0.484457 0.000000 0
M  V30 6 C -3.330265 -0.381556 0.000000 0
M  V30 7 C -3.830258 -1.247569 0.000000 0
M  V30 8 C -4.830244 -1.247569 0.000000 0
M  V30 9 C -2.330265 -0.381556 0.000000 0
M  V30 10 N -1.464269 -0.881457 0.000000 0
M  V30 11 C -0.598265 -0.381556 0.000000 0
M  V30 12 C -0.598256 0.618444 0.000000 0
M  V30 13 N -1.464252 1.118544 0.000000 0
M  V30 14 C -2.330257 0.618444 0.000000 0
M  V30 15 C 0.267748 1.118344 0.000000 0
M  V30 16 C 1.133744 0.618444 0.000000 0
M  V30 17 C 1.133736 -0.381556 0.000000 0
M  V30 18 C 0.267731 -0.881657 0.000000 0
M  V30 19 C 1.999784 -0.881518 0.000000 0
M  V30 20 C 2.865788 -0.381418 0.000000 0
M  V30 21 C 3.731784 -0.881518 0.000000 0
M  V30 22 C 3.731776 -1.881518 0.000000 0
M  V30 23 C 2.865772 -2.381418 0.000000 0
M  V30 24 C 1.999775 -1.881518 0.000000 0
M  V30 25 N 4.597772 -2.381418 0.000000 0
M  V30 26 C 5.463776 -1.881518 0.000000 0
M  V30 27 C 5.463785 -0.881518 0.000000 0
M  V30 28 N 4.597789 -0.381418 0.000000 0
M  V30 END ATOM
M  V30 BEGIN BOND
M  V30 1 2 3 4
M  V30 2 1 4 5
M  V30 3 2 5 6
M  V30 4 1 6 7
M  V30 5 2 7 8
M  V30 6 1 6 9
M  V30 7 2 9 10
M  V30 8 1 10 11
M  V30 9 2 11 12
M  V30 10 1 12 13
M  V30 11 2 13 14
M  V30 12 1 12 15
M  V30 13 2 15 16
M  V30 14 1 16 17
M  V30 15 2 17 18
M  V30 16 1 17 19
M  V30 17 2 19 20
M  V30 18 1 20 21
M  V30 19 2 21 22
M  V30 20 1 22 23
M  V30 21 2 23 24
M  V30 22 1 22 25
M  V30 23 2 25 26
M  V30 24 1 26 27
M  V30 25 2 27 28
M  V30 26 1 8 3
M  V30 27 1 14 9
M  V30 28 1 24 19
M  V30 29 1 18 11
M  V30 30 1 28 21
M  V30 31 1 1 3
M  V30 32 1 2 27
M  V30 END BOND
M  V30 BEGIN SGROUP
M  V30 1 SRU 0 ATOMS=(4 1 2 3 27) CBONDS=(2 31 32) -
M  V30 BRKXYZ=(9 -5.8302 3.1184 0 -5.8302 -3.8815 0 0 0 0) BRKXYZ=(9 5.8968 2.-
M  V30 8684 0 5.8968 -4.1315 0 0 0 0)
M  V30 END SGROUP
M  V30 END CTAB
M  END
>  <BIGSMILES_BRACKET_RECORDS_JSON>
{
  "records": [
    {
      "id": 0,
      "bracket_kind": "backbone",
      "pairing_id": "F1/fragments[0]",
      "group_id": "<1:3",
      "ru_midpoint": [
        0.1911890299083332,
        -0.5601001346788108
      ],
      "bond_midpoint": [
        -5.830236452204076,
        -0.3815564120845344
      ],
      "orientation_vector": [
        0.0,
        1.0
      ],
      "half_bracket_size": 3.499962479568828,
      "bond": [
        0,
        2
      ],
      "fragment": "F1",
      "backbone": true,
      "suspended_anchor_atom": null,
      "suspended_reason": null,
      "source_label": "F1/fragments[0]",
      "marker_id": "0",
      "side": "left",
      "connection_group": "<1",
      "marker_type_index": 3
    },
    {
      "id": 1,
      "bracket_kind": "backbone",
      "pairing_id": "F1/fragments[0]",
      "group_id": ">1:4",
      "ru_midpoint": [
        0.1911890299083332,
        -0.5601001346788108
      ],
      "bond_midpoint": [
        5.896811166101019,
        -0.6315416898120612
      ],
      "orientation_vector": [
        0.0,
        1.0
      ],
      "half_bracket_size": 3.499962479568828,
      "bond": [
        1,
        26
      ],
      "fragment": "F1",
      "backbone": true,
      "suspended_anchor_atom": null,
      "suspended_reason": null,
      "source_label": "F1/fragments[0]",
      "marker_id": "27",
      "side": "right",
      "connection_group": ">1",
      "marker_type_index": 4
    }
  ]
}
