
     RDKit          2D

  0  0  0  0  0  0  0  0  0  0999 V3000
M  V30 BEGIN CTAB
M  V30 COUNTS 18 18 1 0 0
M  V30 BEGIN ATOM
M  V30 1 H -1.299344 -0.448581 0.000000 0
M  V30 2 H 1.298908 0.051381 0.000000 0
M  V30 3 C -0.433260 0.051381 0.000000 0
M  V30 4 F -0.433260 1.051586 0.000000 0
M  V30 5 F -0.433260 -0.948619 0.000000 0
M  V30 6 C 0.432824 -0.448581 0.000000 0
M  V30 7 F 0.432824 0.551344 0.000000 0
M  V30 8 C 0.432824 -1.448606 0.000000 0
M  V30 9 C 1.298803 -1.948687 0.000000 0
M  V30 10 F 2.164783 -1.448743 0.000000 0
M  V30 11 C 1.298630 -2.948611 0.000000 0
M  V30 12 F 2.164609 -3.448692 0.000000 0
M  V30 13 C 0.432651 -3.448555 0.000000 0
M  V30 14 F 0.432478 -4.448480 0.000000 0
M  V30 15 C -0.433328 -2.948475 0.000000 0
M  V30 16 F -1.299480 -3.448319 0.000000 0
M  V30 17 C -0.433328 -1.948450 0.000000 0
M  V30 18 F -1.299307 -1.448369 0.000000 0
M  V30 END ATOM
M  V30 BEGIN BOND
M  V30 1 1 3 4
M  V30 2 1 3 5
M  V30 3 1 3 6
M  V30 4 1 6 7
M  V30 5 1 6 8
M  V30 6 2 8 9
M  V30 7 1 9 10
M  V30 8 1 9 11
M  V30 9 1 11 12
M  V30 10 2 11 13
M  V30 11 1 13 14
M  V30 12 1 13 15
M  V30 13 1 15 16
M  V30 14 2 15 17
M  V30 15 1 17 18
M  V30 16 1 17 8
M  V30 17 1 1 3
M  V30 18 1 2 6
M  V30 END BOND
M  V30 BEGIN SGROUP
M  V30 1 SRU 0 ATOMS=(4 1 2 3 6) CBONDS=(2 17 18) -
M  V30 BRKXYZ=(9 -0.8663 0.3014 0 -0.8663 -0.6986 0 0 0 0) BRKXYZ=(9 0.8659 0.-
M  V30 3014 0 0.8659 -0.6986 0 0 0 0)
M  V30 END SGROUP
M  V30 END CTAB
M  END
>  <BIGSMILES_BRACKET_RECORDS_JSON>
{
  "records": [
    {
      "id": 0,
      "bracket_kind": "backbone",
      "pairing_id": "F1/fragments[0]",
      "group_id": "$a:2",
      "ru_midpoint": [
        -0.0002131504739193435,
        -0.19859208097952366
      ],
      "bond_midpoint": [
        -0.8663017845627012,
        -0.19859999999999983
      ],
      "orientation_vector": [
        0.0,
        1.0
      ],
      "half_bracket_size": 0.49996239825159927,
      "bond": [
        0,
        2
      ],
      "fragment": "F1",
      "backbone": true,
      "suspended_anchor_atom": null,
      "suspended_reason": null,
      "source_label": "F1/fragments[0]",
      "marker_id": "0",
      "side": "left",
      "connection_group": "$a",
      "marker_type_index": 2
    },
    {
      "id": 1,
      "bracket_kind": "backbone",
      "pairing_id": "F1/fragments[0]",
      "group_id": "$a:2",
      "ru_midpoint": [
        -0.0002131504739193435,
        -0.19859208097952366
      ],
      "bond_midpoint": [
        0.8658663369942217,
        -0.19859999999999983
      ],
      "orientation_vector": [
        0.0,
        1.0
      ],
      "half_bracket_size": 0.49996239825159927,
      "bond": [
        1,
        5
      ],
      "fragment": "F1",
      "backbone": true,
      "suspended_anchor_atom": null,
      "suspended_reason": null,
      "source_label": "F1/fragments[0]",
      "marker_id": "17",
      "side": "right",
      "connection_group": "$a",
      "marker_type_index": 2
    }
  ]
}
