
     RDKit          2D

  0  0  0  0  0  0  0  0  0  0999 V3000
M  V30 BEGIN CTAB
M  V30 COUNTS 18 17 1 0 0
M  V30 BEGIN ATOM
M  V30 1 H -7.362055 -0.448550 0.000000 0 VAL=2
M  V30 2 H 7.361220 0.051350 0.000000 0 VAL=2
M  V30 3 C -6.495851 0.051350 0.000000 0
M  V30 4 C -5.629646 -0.448550 0.000000 0
M  V30 5 C -4.763650 0.051350 0.000000 0
M  V30 6 C -3.897567 -0.448550 0.000000 0
M  V30 7 C -3.031455 0.051350 0.000000 0
M  V30 8 C -2.165335 -0.448550 0.000000 0
M  V30 9 C -1.299223 0.051350 0.000000 0
M  V30 10 C -0.433140 -0.448550 0.000000 0
M  V30 11 C 0.432856 0.051350 0.000000 0
M  V30 12 C 1.298861 -0.448550 0.000000 0
M  V30 13 C 2.164972 0.051350 0.000000 0
M  V30 14 C 3.031056 -0.448550 0.000000 0
M  V30 15 C 3.897052 0.051350 0.000000 0
M  V30 16 C 4.763057 -0.448550 0.000000 0
M  V30 17 C 5.629053 0.051350 0.000000 0
M  V30 18 C 6.495136 -0.448550 0.000000 0
M  V30 END ATOM
M  V30 BEGIN BOND
M  V30 1 1 3 4
M  V30 2 2 4 5
M  V30 3 1 5 6
M  V30 4 2 6 7
M  V30 5 1 7 8
M  V30 6 2 8 9
M  V30 7 1 9 10
M  V30 8 2 10 11
M  V30 9 1 11 12
M  V30 10 2 12 13
M  V30 11 1 13 14
M  V30 12 2 14 15
M  V30 13 1 15 16
M  V30 14 2 16 17
M  V30 15 1 17 18
M  V30 16 2 1 3
M  V30 17 2 2 18
M  V30 END BOND
M  V30 BEGIN SGROUP
M  V30 1 SRU 0 ATOMS=(4 1 2 3 18) CBONDS=(2 16 17) -
M  V30 BRKXYZ=(9 -6.9290 0.3013 0 -6.9290 -0.6985 0 0 0 0) BRKXYZ=(9 6.9282 0.-
M  V30 3013 0 6.9282 -0.6985 0 0 0 0)
M  V30 END SGROUP
M  V30 END CTAB
M  END
>  <BIGSMILES_BRACKET_RECORDS_JSON>
{
  "records": [
    {
      "id": 0,
      "bracket_kind": "backbone",
      "pairing_id": "F1/fragments[0]",
      "group_id": "$a:2",
      "ru_midpoint": [
        -0.0003344374900215996,
        -0.19853171072961442
      ],
      "bond_midpoint": [
        -6.928952913441416,
        -0.1986000000000001
      ],
      "orientation_vector": [
        0.0,
        1.0
      ],
      "half_bracket_size": 0.49989999835259935,
      "bond": [
        0,
        2
      ],
      "fragment": "F1",
      "backbone": true,
      "suspended_anchor_atom": null,
      "suspended_reason": null,
      "source_label": "F1/fragments[0]",
      "marker_id": "0",
      "side": "left",
      "connection_group": "$a",
      "marker_type_index": 2
    },
    {
      "id": 1,
      "bracket_kind": "backbone",
      "pairing_id": "F1/fragments[0]",
      "group_id": "$a:2",
      "ru_midpoint": [
        -0.0003344374900215996,
        -0.19853171072961442
      ],
      "bond_midpoint": [
        6.928178218475267,
        -0.1986000000000001
      ],
      "orientation_vector": [
        0.0,
        1.0
      ],
      "half_bracket_size": 0.49989999835259935,
      "bond": [
        1,
        17
      ],
      "fragment": "F1",
      "backbone": true,
      "suspended_anchor_atom": null,
      "suspended_reason": null,
      "source_label": "F1/fragments[0]",
      "marker_id": "17",
      "side": "right",
      "connection_group": "$a",
      "marker_type_index": 2
    }
  ]
}
