
     RDKit          2D

  0  0  0  0  0  0  0  0  0  0999 V3000
M  V30 BEGIN CTAB
M  V30 COUNTS 47 53 1 0 0
M  V30 BEGIN ATOM
M  V30 1 H -10.523816 -0.713842 0.000000 0
M  V30 2 H 10.523417 -0.214217 0.000000 0
M  V30 3 N -9.532910 -0.848401 0.000000 0
M  V30 4 C -8.841578 -0.125830 0.000000 0
M  V30 5 O -9.019729 0.858055 0.000000 0
M  V30 6 C -7.940798 -0.560102 0.000000 0
M  V30 7 C -8.075435 -1.550998 0.000000 0
M  V30 8 C -9.059327 -1.729112 0.000000 0
M  V30 9 O -9.493542 -2.629919 0.000000 0
M  V30 10 C -7.284626 -2.162949 0.000000 0
M  V30 11 C -6.359206 -1.784204 0.000000 0
M  V30 12 C -6.224569 -0.793309 0.000000 0
M  V30 13 C -7.015351 -0.181159 0.000000 0
M  V30 14 O -5.299090 -0.414509 0.000000 0
M  V30 15 C -4.299090 -0.414509 0.000000 0
M  V30 16 C -3.799097 0.451504 0.000000 0
M  V30 17 C -2.799112 0.451504 0.000000 0
M  V30 18 C -2.299119 -0.414509 0.000000 0
M  V30 19 C -2.799112 -1.280522 0.000000 0
M  V30 20 C -3.799097 -1.280522 0.000000 0
M  V30 21 C -1.299119 -0.414509 0.000000 0
M  V30 22 C -1.299119 -1.414510 0.000000 0
M  V30 23 C -1.299119 0.585523 0.000000 0
M  V30 24 C -0.299119 -0.414509 0.000000 0
M  V30 25 C 0.200874 0.451504 0.000000 0
M  V30 26 C 1.200860 0.451504 0.000000 0
M  V30 27 C 1.700852 -0.414509 0.000000 0
M  V30 28 C 1.200860 -1.280522 0.000000 0
M  V30 29 C 0.200874 -1.280522 0.000000 0
M  V30 30 O 2.700852 -0.414509 0.000000 0
M  V30 31 C 3.626274 -0.793449 0.000000 0
M  V30 32 C 3.760764 -1.784396 0.000000 0
M  V30 33 C 4.686264 -2.163211 0.000000 0
M  V30 34 C 5.477114 -1.551201 0.000000 0
M  V30 35 C 5.342465 -0.560376 0.000000 0
M  V30 36 C 4.417124 -0.181439 0.000000 0
M  V30 37 C 6.243235 -0.126081 0.000000 0
M  V30 38 O 6.421427 0.857762 0.000000 0
M  V30 39 N 6.934450 -0.848704 0.000000 0
M  V30 40 C 6.460987 -1.729142 0.000000 0
M  V30 41 O 6.895370 -2.630133 0.000000 0
M  V30 42 C 7.925366 -0.714217 0.000000 0
M  V30 43 C 7.925366 -1.714202 0.000000 0
M  V30 44 C 8.791378 -2.214195 0.000000 0
M  V30 45 C 9.657391 -1.714202 0.000000 0
M  V30 46 C 9.657391 -0.714217 0.000000 0
M  V30 47 C 8.791378 -0.214224 0.000000 0
M  V30 END ATOM
M  V30 BEGIN BOND
M  V30 1 1 3 4
M  V30 2 2 4 5
M  V30 3 1 4 6
M  V30 4 2 6 7
M  V30 5 1 7 8
M  V30 6 2 8 9
M  V30 7 1 7 10
M  V30 8 2 10 11
M  V30 9 1 11 12
M  V30 10 2 12 13
M  V30 11 1 12 14
M  V30 12 1 14 15
M  V30 13 2 15 16
M  V30 14 1 16 17
M  V30 15 2 17 18
M  V30 16 1 18 19
M  V30 17 2 19 20
M  V30 18 1 18 21
M  V30 19 1 21 22
M  V30 20 1 21 23
M  V30 21 1 21 24
M  V30 22 2 24 25
M  V30 23 1 25 26
M  V30 24 2 26 27
M  V30 25 1 27 28
M  V30 26 2 28 29
M  V30 27 1 27 30
M  V30 28 1 30 31
M  V30 29 2 31 32
M  V30 30 1 32 33
M  V30 31 2 33 34
M  V30 32 1 34 35
M  V30 33 2 35 36
M  V30 34 1 35 37
M  V30 35 2 37 38
M  V30 36 1 37 39
M  V30 37 1 39 40
M  V30 38 2 40 41
M  V30 39 1 39 42
M  V30 40 2 42 43
M  V30 41 1 43 44
M  V30 42 2 44 45
M  V30 43 1 45 46
M  V30 44 2 46 47
M  V30 45 1 8 3
M  V30 46 1 20 15
M  V30 47 1 29 24
M  V30 48 1 36 31
M  V30 49 1 47 42
M  V30 50 1 13 6
M  V30 51 1 40 34
M  V30 52 1 1 3
M  V30 53 1 2 46
M  V30 END BOND
M  V30 BEGIN SGROUP
M  V30 1 SRU 0 ATOMS=(4 1 2 3 46) CBONDS=(2 52 53) -
M  V30 BRKXYZ=(9 -10.0284 1.8846 0 -10.0284 -3.4468 0 0 0 0) BRKXYZ=(9 10.0904-
M  V30  2.2015 0 10.0904 -3.1299 0 0 0 0)
M  V30 END SGROUP
M  V30 END CTAB
M  END
>  <BIGSMILES_BRACKET_RECORDS_JSON>
{
  "records": [
    {
      "id": 0,
      "bracket_kind": "backbone",
      "pairing_id": "F1/fragments[0]",
      "group_id": "<1:3",
      "ru_midpoint": [
        0.24087727966392514,
        -0.8269516221474755
      ],
      "bond_midpoint": [
        -10.028362843333351,
        -0.7811214415449595
      ],
      "orientation_vector": [
        0.0,
        1.0
      ],
      "half_bracket_size": 2.66569884250234,
      "bond": [
        0,
        2
      ],
      "fragment": "F1",
      "backbone": true,
      "suspended_anchor_atom": null,
      "suspended_reason": null,
      "source_label": "F1/fragments[0]",
      "marker_id": "0",
      "side": "left",
      "connection_group": "<1",
      "marker_type_index": 3
    },
    {
      "id": 1,
      "bracket_kind": "backbone",
      "pairing_id": "F1/fragments[0]",
      "group_id": ">1:4",
      "ru_midpoint": [
        0.24087727966392514,
        -0.8269516221474755
      ],
      "bond_midpoint": [
        10.090404093739547,
        -0.46421663422050374
      ],
      "orientation_vector": [
        0.0,
        1.0
      ],
      "half_bracket_size": 2.66569884250234,
      "bond": [
        1,
        45
      ],
      "fragment": "F1",
      "backbone": true,
      "suspended_anchor_atom": null,
      "suspended_reason": null,
      "source_label": "F1/fragments[0]",
      "marker_id": "46",
      "side": "right",
      "connection_group": ">1",
      "marker_type_index": 4
    }
  ]
}
