
     RDKit          2D

  0  0  0  0  0  0  0  0  0  0999 V3000
M  V30 BEGIN CTAB
M  V30 COUNTS 17 17 1 0 0
M  V30 BEGIN ATOM
M  V30 1 H -5.031217 -0.381674 0.000000 0
M  V30 2 H 5.030835 0.118426 0.000000 0
M  V30 3 O -4.165221 -0.881574 0.000000 0
M  V30 4 C -3.299224 -0.381674 0.000000 0
M  V30 5 O -3.558009 0.584261 0.000000 0
M  V30 6 C -2.299224 -0.381674 0.000000 0
M  V30 7 C -1.799211 0.484374 0.000000 0
M  V30 8 C -0.799184 0.484374 0.000000 0
M  V30 9 C -0.299171 -0.381674 0.000000 0
M  V30 10 C -0.799184 -1.247723 0.000000 0
M  V30 11 C -1.799211 -1.247723 0.000000 0
M  V30 12 C 0.700829 -0.381674 0.000000 0
M  V30 13 O 0.959697 -1.347587 0.000000 0
M  V30 14 O 1.566825 0.118426 0.000000 0
M  V30 15 C 2.432830 -0.381674 0.000000 0
M  V30 16 C 3.298826 0.118426 0.000000 0
M  V30 17 C 4.164830 -0.381674 0.000000 0
M  V30 END ATOM
M  V30 BEGIN BOND
M  V30 1 1 3 4
M  V30 2 2 4 5
M  V30 3 1 4 6
M  V30 4 2 6 7
M  V30 5 1 7 8
M  V30 6 2 8 9
M  V30 7 1 9 10
M  V30 8 2 10 11
M  V30 9 1 9 12
M  V30 10 2 12 13
M  V30 11 1 12 14
M  V30 12 1 14 15
M  V30 13 1 15 16
M  V30 14 1 16 17
M  V30 15 1 11 6
M  V30 16 1 1 3
M  V30 17 1 2 17
M  V30 END BOND
M  V30 BEGIN SGROUP
M  V30 1 SRU 0 ATOMS=(4 1 2 3 17) CBONDS=(2 16 17) -
M  V30 BRKXYZ=(9 -4.5982 1.1005 0 -4.5982 -2.3637 0 0 0 0) BRKXYZ=(9 4.5978 1.-
M  V30 6005 0 4.5978 -1.8637 0 0 0 0)
M  V30 END SGROUP
M  V30 END CTAB
M  END
>  <BIGSMILES_BRACKET_RECORDS_JSON>
{
  "records": [
    {
      "id": 0,
      "bracket_kind": "backbone",
      "pairing_id": "F1/fragments[0]",
      "group_id": "<1:3",
      "ru_midpoint": [
        -0.20634424690292974,
        -0.3149917024931194
      ],
      "bond_midpoint": [
        -4.59821876465008,
        -0.631624269823891
      ],
      "orientation_vector": [
        0.0,
        1.0
      ],
      "half_bracket_size": 1.7320970792955652,
      "bond": [
        0,
        2
      ],
      "fragment": "F1",
      "backbone": true,
      "suspended_anchor_atom": null,
      "suspended_reason": null,
      "source_label": "F1/fragments[0]",
      "marker_id": "0",
      "side": "left",
      "connection_group": "<1",
      "marker_type_index": 3
    },
    {
      "id": 1,
      "bracket_kind": "backbone",
      "pairing_id": "F1/fragments[0]",
      "group_id": ">1:4",
      "ru_midpoint": [
        -0.20634424690292974,
        -0.3149917024931194
      ],
      "bond_midpoint": [
        4.597832367417187,
        -0.13162410984119677
      ],
      "orientation_vector": [
        0.0,
        1.0
      ],
      "half_bracket_size": 1.7320970792955652,
      "bond": [
        1,
        16
      ],
      "fragment": "F1",
      "backbone": true,
      "suspended_anchor_atom": null,
      "suspended_reason": null,
      "source_label": "F1/fragments[0]",
      "marker_id": "16",
      "side": "right",
      "connection_group": ">1",
      "marker_type_index": 4
    }
  ]
}
