
     RDKit          2D

  0  0  0  0  0  0  0  0  0  0999 V3000
M  V30 BEGIN CTAB
M  V30 COUNTS 20 20 3 0 0
M  V30 BEGIN ATOM
M  V30 1 H -3.031363 0.051400 0.000000 0
M  V30 2 H 3.030942 -0.448600 0.000000 0
M  V30 3 C -2.165349 -0.448623 0.000000 0
M  V30 4 N -1.299334 0.051400 0.000000 0
M  V30 5 C -1.299334 1.051414 0.000000 0
M  V30 6 O -0.433516 1.551377 0.000000 0
M  V30 7 C -2.165499 1.551265 0.000000 0
M  V30 8 C -0.433384 -0.448623 0.000000 0
M  V30 9 C 0.432628 0.051400 0.000000 0
M  V30 10 N 1.298890 -0.448600 0.000000 0
M  V30 11 C 1.298890 -1.448625 0.000000 0
M  V30 12 O 2.164869 -1.948705 0.000000 0
M  V30 13 C 0.432811 -1.948742 0.000000 0
M  V30 14 C 0.432711 -2.948940 0.000000 0
M  V30 15 C -0.432695 -3.448290 0.000000 0
M  V30 16 O -0.538452 -4.442759 0.000000 0
M  V30 17 C -1.515889 -4.651075 0.000000 0
M  V30 18 C -2.016226 -3.784176 0.000000 0
M  V30 19 C -1.346458 -3.042323 0.000000 0
M  V30 20 C 2.164916 0.051400 0.000000 0
M  V30 END ATOM
M  V30 BEGIN BOND
M  V30 1 1 3 4
M  V30 2 1 4 5
M  V30 3 2 5 6
M  V30 4 1 5 7
M  V30 5 1 4 8
M  V30 6 1 9 10
M  V30 7 1 10 11
M  V30 8 2 11 12
M  V30 9 1 11 13
M  V30 10 1 13 14
M  V30 11 1 14 15
M  V30 12 1 15 16
M  V30 13 1 16 17
M  V30 14 2 17 18
M  V30 15 1 18 19
M  V30 16 1 10 20
M  V30 17 2 19 15
M  V30 18 1 8 9
M  V30 19 1 1 3
M  V30 20 1 2 20
M  V30 END BOND
M  V30 BEGIN SGROUP
M  V30 1 SRU 0 ATOMS=(4 1 3 8 9) CBONDS=(2 18 19) -
M  V30 BRKXYZ=(9 -2.5984 -0.6986 0 -2.5984 0.3014 0 0 0 0) BRKXYZ=(9 -0.0004 --
M  V30 0.6986 0 -0.0004 0.3014 0 0 0 0)
M  V30 2 SRU 0 ATOMS=(4 2 8 9 20) CBONDS=(2 18 20) -
M  V30 BRKXYZ=(9 -0.0004 0.3014 0 -0.0004 -0.6986 0 0 0 0) BRKXYZ=(9 2.5979 0.-
M  V30 3014 0 2.5979 -0.6986 0 0 0 0)
M  V30 3 SRU 0 ATOMS=(4 1 2 3 20) CBONDS=(2 19 20) -
M  V30 BRKXYZ=(9 -2.5984 -6.4011 0 -2.5984 6.0038 0 0 0 0) BRKXYZ=(9 2.5979 -6-
M  V30 .4011 0 2.5979 6.0039 0 0 0 0)
M  V30 END SGROUP
M  V30 END CTAB
M  END
>  <BIGSMILES_BRACKET_RECORDS_JSON>
{
  "records": [
    {
      "id": 0,
      "bracket_kind": "backbone",
      "pairing_id": "F1/fragments[0]",
      "group_id": "$a:2",
      "ru_midpoint": [
        -1.2993737854124014,
        -0.14863068162366927
      ],
      "bond_midpoint": [
        -2.5983561197037632,
        -0.19861141153693584
      ],
      "orientation_vector": [
        0.0,
        -1.0
      ],
      "half_bracket_size": 0.5000228868815642,
      "bond": [
        0,
        2
      ],
      "fragment": "F1",
      "backbone": true,
      "suspended_anchor_atom": null,
      "suspended_reason": null,
      "source_label": "F1/fragments[0]",
      "marker_id": "0",
      "side": "left",
      "connection_group": "$a",
      "marker_type_index": 2
    },
    {
      "id": 1,
      "bracket_kind": "backbone",
      "pairing_id": "F1/fragments[0]",
      "group_id": "$a:2",
      "ru_midpoint": [
        -1.2993737854124014,
        -0.14863068162366927
      ],
      "bond_midpoint": [
        -0.0003783051013557248,
        -0.19861141153693573
      ],
      "orientation_vector": [
        0.0,
        -1.0
      ],
      "half_bracket_size": 0.5000228868815642,
      "bond": [
        7,
        8
      ],
      "fragment": "F1",
      "backbone": true,
      "suspended_anchor_atom": null,
      "suspended_reason": null,
      "source_label": "F1/fragments[0]",
      "marker_id": "7",
      "side": "right",
      "connection_group": "$a",
      "marker_type_index": 2
    },
    {
      "id": 2,
      "bracket_kind": "backbone",
      "pairing_id": "F1/fragments[1]",
      "group_id": "$a:2",
      "ru_midpoint": [
        1.2988072492212233,
        -0.24858296963724968
      ],
      "bond_midpoint": [
        -0.0003783051013557248,
        -0.19861141153693573
      ],
      "orientation_vector": [
        0.0,
        1.0
      ],
      "half_bracket_size": 0.5000228868815642,
      "bond": [
        7,
        8
      ],
      "fragment": "F1",
      "backbone": true,
      "suspended_anchor_atom": null,
      "suspended_reason": null,
      "source_label": "F1/fragments[1]",
      "marker_id": "0",
      "side": "left",
      "connection_group": "$a",
      "marker_type_index": 2
    },
    {
      "id": 3,
      "bracket_kind": "backbone",
      "pairing_id": "F1/fragments[1]",
      "group_id": "$a:2",
      "ru_midpoint": [
        1.2988072492212233,
        -0.24858296963724968
      ],
      "bond_midpoint": [
        2.5979289159957117,
        -0.19859999999999978
      ],
      "orientation_vector": [
        0.0,
        1.0
      ],
      "half_bracket_size": 0.5000228868815642,
      "bond": [
        1,
        19
      ],
      "fragment": "F1",
      "backbone": true,
      "suspended_anchor_atom": null,
      "suspended_reason": null,
      "source_label": "F1/fragments[1]",
      "marker_id": "13",
      "side": "right",
      "connection_group": "$a",
      "marker_type_index": 2
    },
    {
      "id": 4,
      "bracket_kind": "backbone",
      "pairing_id": "F1/connected",
      "group_id": "$overall",
      "ru_midpoint": [
        -0.00025757491874389693,
        -0.19861022779983845
      ],
      "bond_midpoint": [
        -2.5983561197037632,
        -0.19861141153693584
      ],
      "orientation_vector": [
        0.0,
        -1.0
      ],
      "half_bracket_size": 6.202451372540132,
      "bond": [
        0,
        2
      ],
      "fragment": "F1",
      "backbone": true,
      "suspended_anchor_atom": null,
      "suspended_reason": null,
      "source_label": "F1/connected",
      "marker_id": "connected-overall-left",
      "side": "left",
      "connection_group": "$overall",
      "marker_type_index": null
    },
    {
      "id": 5,
      "bracket_kind": "backbone",
      "pairing_id": "F1/connected",
      "group_id": "$overall",
      "ru_midpoint": [
        -0.00025757491874389693,
        -0.19861022779983845
      ],
      "bond_midpoint": [
        2.5979289159957117,
        -0.19859999999999978
      ],
      "orientation_vector": [
        0.0,
        -1.0
      ],
      "half_bracket_size": 6.202451372540132,
      "bond": [
        1,
        19
      ],
      "fragment": "F1",
      "backbone": true,
      "suspended_anchor_atom": null,
      "suspended_reason": null,
      "source_label": "F1/connected",
      "marker_id": "connected-overall-right",
      "side": "right",
      "connection_group": "$overall",
      "marker_type_index": null
    }
  ]
}
