
     RDKit          2D

  0  0  0  0  0  0  0  0  0  0999 V3000
M  V30 BEGIN CTAB
M  V30 COUNTS 16 15 3 0 0
M  V30 BEGIN ATOM
M  V30 1 H -3.031177 0.051411 0.000000 0
M  V30 2 H 3.030755 -0.448689 0.000000 0
M  V30 3 C -2.165162 -0.448611 0.000000 0
M  V30 4 N -1.299148 0.051411 0.000000 0
M  V30 5 C -1.299148 1.051426 0.000000 0
M  V30 6 O -0.433329 1.551388 0.000000 0
M  V30 7 C -2.165312 1.551276 0.000000 0
M  V30 8 C -0.433198 -0.448611 0.000000 0
M  V30 9 C 0.432815 0.051411 0.000000 0
M  V30 10 N 1.298819 -0.448689 0.000000 0
M  V30 11 C 1.298819 -1.448713 0.000000 0
M  V30 12 O 0.432840 -1.948794 0.000000 0
M  V30 13 C 2.164971 -1.948557 0.000000 0
M  V30 14 C 2.164971 -2.948582 0.000000 0
M  V30 15 S 3.031124 -3.448426 0.000000 0
M  V30 16 C 2.164787 0.051411 0.000000 0
M  V30 END ATOM
M  V30 BEGIN BOND
M  V30 1 1 3 4
M  V30 2 1 4 5
M  V30 3 2 5 6
M  V30 4 1 5 7
M  V30 5 1 4 8
M  V30 6 1 9 10
M  V30 7 1 10 11
M  V30 8 2 11 12
M  V30 9 1 11 13
M  V30 10 1 13 14
M  V30 11 1 14 15
M  V30 12 1 10 16
M  V30 13 1 8 9
M  V30 14 1 1 3
M  V30 15 1 2 16
M  V30 END BOND
M  V30 BEGIN SGROUP
M  V30 1 SRU 0 ATOMS=(4 1 3 8 9) CBONDS=(2 13 14) -
M  V30 BRKXYZ=(9 -2.5982 -0.6987 0 -2.5982 0.3015 0 0 0 0) BRKXYZ=(9 -0.0002 --
M  V30 0.6987 0 -0.0002 0.3015 0 0 0 0)
M  V30 2 SRU 0 ATOMS=(4 2 8 9 16) CBONDS=(2 13 15) -
M  V30 BRKXYZ=(9 -0.0002 0.3015 0 -0.0002 -0.6987 0 0 0 0) BRKXYZ=(9 2.5978 0.-
M  V30 3015 0 2.5978 -0.6987 0 0 0 0)
M  V30 3 SRU 0 ATOMS=(4 1 2 3 16) CBONDS=(2 14 15) -
M  V30 BRKXYZ=(9 -2.5982 -5.1984 0 -2.5982 4.8012 0 0 0 0) BRKXYZ=(9 2.5978 -5-
M  V30 .1985 0 2.5978 4.8012 0 0 0 0)
M  V30 END SGROUP
M  V30 END CTAB
M  END
>  <BIGSMILES_BRACKET_RECORDS_JSON>
{
  "records": [
    {
      "id": 0,
      "bracket_kind": "backbone",
      "pairing_id": "F1/fragments[0]",
      "group_id": "$a:2",
      "ru_midpoint": [
        -1.2991870360909545,
        -0.1486192700867333
      ],
      "bond_midpoint": [
        -2.5981693703823163,
        -0.1985999999999999
      ],
      "orientation_vector": [
        0.0,
        -1.0
      ],
      "half_bracket_size": 0.500100159950025,
      "bond": [
        0,
        2
      ],
      "fragment": "F1",
      "backbone": true,
      "suspended_anchor_atom": null,
      "suspended_reason": null,
      "source_label": "F1/fragments[0]",
      "marker_id": "0",
      "side": "left",
      "connection_group": "$a",
      "marker_type_index": 2
    },
    {
      "id": 1,
      "bracket_kind": "backbone",
      "pairing_id": "F1/fragments[0]",
      "group_id": "$a:2",
      "ru_midpoint": [
        -1.2991870360909545,
        -0.1486192700867333
      ],
      "bond_midpoint": [
        -0.00019155577990881412,
        -0.1986
      ],
      "orientation_vector": [
        0.0,
        -1.0
      ],
      "half_bracket_size": 0.500100159950025,
      "bond": [
        7,
        8
      ],
      "fragment": "F1",
      "backbone": true,
      "suspended_anchor_atom": null,
      "suspended_reason": null,
      "source_label": "F1/fragments[0]",
      "marker_id": "7",
      "side": "right",
      "connection_group": "$a",
      "marker_type_index": 2
    },
    {
      "id": 2,
      "bracket_kind": "backbone",
      "pairing_id": "F1/fragments[1]",
      "group_id": "$a:2",
      "ru_midpoint": [
        1.2987930194760782,
        -0.24863161237508952
      ],
      "bond_midpoint": [
        -0.00019155577990881412,
        -0.1986
      ],
      "orientation_vector": [
        0.0,
        1.0
      ],
      "half_bracket_size": 0.500100159950025,
      "bond": [
        7,
        8
      ],
      "fragment": "F1",
      "backbone": true,
      "suspended_anchor_atom": null,
      "suspended_reason": null,
      "source_label": "F1/fragments[1]",
      "marker_id": "0",
      "side": "left",
      "connection_group": "$a",
      "marker_type_index": 2
    },
    {
      "id": 3,
      "bracket_kind": "backbone",
      "pairing_id": "F1/fragments[1]",
      "group_id": "$a:2",
      "ru_midpoint": [
        1.2987930194760782,
        -0.24863161237508952
      ],
      "bond_midpoint": [
        2.5977709671447706,
        -0.19863863653423042
      ],
      "orientation_vector": [
        0.0,
        1.0
      ],
      "half_bracket_size": 0.500100159950025,
      "bond": [
        1,
        15
      ],
      "fragment": "F1",
      "backbone": true,
      "suspended_anchor_atom": null,
      "suspended_reason": null,
      "source_label": "F1/fragments[1]",
      "marker_id": "9",
      "side": "right",
      "connection_group": "$a",
      "marker_type_index": 2
    },
    {
      "id": 4,
      "bracket_kind": "backbone",
      "pairing_id": "F1/connected",
      "group_id": "$overall",
      "ru_midpoint": [
        -0.00018928526593509076,
        -0.19862383688786156
      ],
      "bond_midpoint": [
        -2.5981693703823163,
        -0.1985999999999999
      ],
      "orientation_vector": [
        0.0,
        -1.0
      ],
      "half_bracket_size": 4.999814167818612,
      "bond": [
        0,
        2
      ],
      "fragment": "F1",
      "backbone": true,
      "suspended_anchor_atom": null,
      "suspended_reason": null,
      "source_label": "F1/connected",
      "marker_id": "connected-overall-left",
      "side": "left",
      "connection_group": "$overall",
      "marker_type_index": null
    },
    {
      "id": 5,
      "bracket_kind": "backbone",
      "pairing_id": "F1/connected",
      "group_id": "$overall",
      "ru_midpoint": [
        -0.00018928526593509076,
        -0.19862383688786156
      ],
      "bond_midpoint": [
        2.5977709671447706,
        -0.19863863653423042
      ],
      "orientation_vector": [
        0.0,
        -1.0
      ],
      "half_bracket_size": 4.999814167818612,
      "bond": [
        1,
        15
      ],
      "fragment": "F1",
      "backbone": true,
      "suspended_anchor_atom": null,
      "suspended_reason": null,
      "source_label": "F1/connected",
      "marker_id": "connected-overall-right",
      "side": "right",
      "connection_group": "$overall",
      "marker_type_index": null
    }
  ]
}
