
     RDKit          2D

  0  0  0  0  0  0  0  0  0  0999 V3000
M  V30 BEGIN CTAB
M  V30 COUNTS 14 14 3 0 0
M  V30 BEGIN ATOM
M  V30 1 H -3.059238 -0.087969 0.000000 0 VAL=2
M  V30 2 H 3.144012 -0.396986 0.000000 0 VAL=2
M  V30 3 C -2.193251 -0.587872 0.000000 0
M  V30 4 C -1.327264 -0.087969 0.000000 0
M  V30 5 C -0.376208 -0.396986 0.000000 0
M  V30 6 C -0.067177 -1.348085 0.000000 0
M  V30 7 C -0.654858 -2.156959 0.000000 0
M  V30 8 R -0.248114 -3.070685 0.000000 2
M  V30 9 C 0.932868 -1.348085 0.000000 0
M  V30 10 C 1.241899 -0.396986 0.000000 0
M  V30 11 C 2.192955 -0.087969 0.000000 0
M  V30 12 C 0.432846 0.190826 0.000000 0
M  V30 13 C 0.432846 1.190771 0.000000 0
M  V30 14 R 1.299056 1.690589 0.000000 2
M  V30 END ATOM
M  V30 BEGIN BOND
M  V30 1 1 3 4
M  V30 2 1 4 5
M  V30 3 1 5 6
M  V30 4 1 6 7
M  V30 5 2 7 8
M  V30 6 1 6 9
M  V30 7 1 9 10
M  V30 8 1 10 11
M  V30 9 1 10 12
M  V30 10 1 12 13
M  V30 11 2 13 14
M  V30 12 1 12 5
M  V30 13 2 1 3
M  V30 14 2 2 11
M  V30 END BOND
M  V30 BEGIN SGROUP
M  V30 1 SRU 0 ATOMS=(4 1 2 3 11) CBONDS=(2 13 14) -
M  V30 BRKXYZ=(9 -2.6262 1.2010 0 -2.6262 -1.8768 0 0 0 0) BRKXYZ=(9 2.6685 1.-
M  V30 2964 0 2.6685 -1.7814 0 0 0 0)
M  V30 2 SRU 0 ATOMS=(2 7 8) CBONDS=(1 5) -
M  V30 BRKXYZ=(9 0.0054 -2.4104 0 -0.9083 -2.8172 0 0 0 0)
M  V30 3 SRU 0 ATOMS=(2 13 14) CBONDS=(1 11) -
M  V30 BRKXYZ=(9 0.6160 1.8738 0 1.1159 1.0076 0 0 0 0)
M  V30 END SGROUP
M  V30 END CTAB
M  END
>  <BIGSMILES_BRACKET_RECORDS_JSON>
{
  "records": [
    {
      "id": 0,
      "bracket_kind": "backbone",
      "pairing_id": "F1/fragments[0]",
      "group_id": "$a:2",
      "ru_midpoint": [
        0.1262078512217823,
        -0.37838894363595266
      ],
      "bond_midpoint": [
        -2.626244527395432,
        -0.3379206621436488
      ],
      "orientation_vector": [
        0.0,
        1.0
      ],
      "half_bracket_size": 1.538910797927119,
      "bond": [
        0,
        2
      ],
      "fragment": "F1",
      "backbone": true,
      "suspended_anchor_atom": null,
      "suspended_reason": null,
      "source_label": "F1/fragments[0]",
      "marker_id": "0",
      "side": "left",
      "connection_group": "$a",
      "marker_type_index": 2
    },
    {
      "id": 1,
      "bracket_kind": "backbone",
      "pairing_id": "F1/fragments[0]",
      "group_id": "$a:2",
      "ru_midpoint": [
        0.1262078512217823,
        -0.37838894363595266
      ],
      "bond_midpoint": [
        2.6684837214774806,
        -0.24247736119558982
      ],
      "orientation_vector": [
        0.0,
        1.0
      ],
      "half_bracket_size": 1.538910797927119,
      "bond": [
        1,
        10
      ],
      "fragment": "F1",
      "backbone": true,
      "suspended_anchor_atom": null,
      "suspended_reason": null,
      "source_label": "F1/fragments[0]",
      "marker_id": "10",
      "side": "right",
      "connection_group": "$a",
      "marker_type_index": 2
    },
    {
      "id": 2,
      "bracket_kind": "pendant",
      "pairing_id": "F1/fragments[0]",
      "group_id": "$a:2",
      "ru_midpoint": [
        0.1262078512217823,
        -0.37838894363595266
      ],
      "bond_midpoint": [
        -0.45148605085553045,
        -2.613821894690283
      ],
      "orientation_vector": [
        0.9135722805151025,
        0.40667639257084337
      ],
      "half_bracket_size": 0.5000837229904613,
      "bond": [
        6,
        7
      ],
      "fragment": "F1",
      "backbone": false,
      "suspended_anchor_atom": null,
      "suspended_reason": null,
      "source_label": "F1/fragments[0]",
      "marker_id": "6",
      "side": "right",
      "connection_group": "$a",
      "marker_type_index": 2
    },
    {
      "id": 3,
      "bracket_kind": "pendant",
      "pairing_id": "F1/fragments[0]",
      "group_id": "$a:2",
      "ru_midpoint": [
        0.1262078512217823,
        -0.37838894363595266
      ],
      "bond_midpoint": [
        0.8659509588955211,
        1.4406797901753978
      ],
      "orientation_vector": [
        -0.4997831695103493,
        0.8661505547387184
      ],
      "half_bracket_size": 0.5000346587987677,
      "bond": [
        12,
        13
      ],
      "fragment": "F1",
      "backbone": false,
      "suspended_anchor_atom": null,
      "suspended_reason": null,
      "source_label": "F1/fragments[0]",
      "marker_id": "13",
      "side": "right",
      "connection_group": "$a",
      "marker_type_index": 2
    }
  ]
}
