
     RDKit          2D

  0  0  0  0  0  0  0  0  0  0999 V3000
M  V30 BEGIN CTAB
M  V30 COUNTS 67 76 1 0 0
M  V30 BEGIN ATOM
M  V30 1 H -16.224823 -0.713927 0.000000 0
M  V30 2 H 16.224424 -0.713968 0.000000 0
M  V30 3 N -15.233927 -0.848562 0.000000 0
M  V30 4 C -14.542598 -0.125988 0.000000 0
M  V30 5 O -14.720754 0.857896 0.000000 0
M  V30 6 C -13.641816 -0.560256 0.000000 0
M  V30 7 C -13.776449 -1.551152 0.000000 0
M  V30 8 C -14.760539 -1.729244 0.000000 0
M  V30 9 O -15.194823 -2.629949 0.000000 0
M  V30 10 C -12.985637 -2.163100 0.000000 0
M  V30 11 C -12.060219 -1.784351 0.000000 0
M  V30 12 C -11.925586 -0.793455 0.000000 0
M  V30 13 C -12.716371 -0.181308 0.000000 0
M  V30 14 O -11.000109 -0.414651 0.000000 0
M  V30 15 C -10.000109 -0.414651 0.000000 0
M  V30 16 C -9.500116 0.451362 0.000000 0
M  V30 17 C -8.500131 0.451362 0.000000 0
M  V30 18 C -8.000138 -0.414651 0.000000 0
M  V30 19 C -8.500131 -1.280664 0.000000 0
M  V30 20 C -9.500116 -1.280664 0.000000 0
M  V30 21 C -7.000138 -0.414651 0.000000 0
M  V30 22 C -7.000138 -1.414652 0.000000 0
M  V30 23 C -7.000138 0.585281 0.000000 0
M  V30 24 C -6.000138 -0.414651 0.000000 0
M  V30 25 C -5.500145 0.451362 0.000000 0
M  V30 26 C -4.500159 0.451362 0.000000 0
M  V30 27 C -4.000167 -0.414651 0.000000 0
M  V30 28 C -4.500159 -1.280664 0.000000 0
M  V30 29 C -5.500145 -1.280664 0.000000 0
M  V30 30 O -3.000167 -0.414651 0.000000 0
M  V30 31 C -2.074703 -0.793487 0.000000 0
M  V30 32 C -1.283868 -0.181456 0.000000 0
M  V30 33 C -0.358359 -0.560246 0.000000 0
M  V30 34 C 0.542399 -0.125927 0.000000 0
M  V30 35 O 0.720565 0.857920 0.000000 0
M  V30 36 N 1.233633 -0.848532 0.000000 0
M  V30 37 C 0.760158 -1.729263 0.000000 0
M  V30 38 O 1.194447 -2.630036 0.000000 0
M  V30 39 C -0.223842 -1.551190 0.000000 0
M  V30 40 C -1.014676 -2.163221 0.000000 0
M  V30 41 C -1.940028 -1.784308 0.000000 0
M  V30 42 C 2.224538 -0.713968 0.000000 0
M  V30 43 C 2.724531 0.152045 0.000000 0
M  V30 44 C 3.724517 0.152045 0.000000 0
M  V30 45 C 4.224510 -0.713968 0.000000 0
M  V30 46 C 3.724517 -1.579981 0.000000 0
M  V30 47 C 2.724531 -1.579981 0.000000 0
M  V30 48 O 5.224510 -0.713968 0.000000 0
M  V30 49 C 6.224510 -0.713968 0.000000 0
M  V30 50 C 6.724503 0.152045 0.000000 0
M  V30 51 C 7.724488 0.152045 0.000000 0
M  V30 52 C 8.224481 -0.713968 0.000000 0
M  V30 53 C 7.724488 -1.579981 0.000000 0
M  V30 54 C 6.724503 -1.579981 0.000000 0
M  V30 55 C 9.224481 -0.713968 0.000000 0
M  V30 56 C 9.724474 0.152045 0.000000 0
M  V30 57 C 10.724460 0.152045 0.000000 0
M  V30 58 C 11.224452 -0.713968 0.000000 0
M  V30 59 C 10.724460 -1.579981 0.000000 0
M  V30 60 C 9.724474 -1.579981 0.000000 0
M  V30 61 O 12.224452 -0.713968 0.000000 0
M  V30 62 C 13.224452 -0.713968 0.000000 0
M  V30 63 C 13.724445 0.152045 0.000000 0
M  V30 64 C 14.724431 0.152045 0.000000 0
M  V30 65 C 15.224424 -0.713968 0.000000 0
M  V30 66 C 14.724431 -1.579981 0.000000 0
M  V30 67 C 13.724445 -1.579981 0.000000 0
M  V30 END ATOM
M  V30 BEGIN BOND
M  V30 1 1 3 4
M  V30 2 2 4 5
M  V30 3 1 4 6
M  V30 4 2 6 7
M  V30 5 1 7 8
M  V30 6 2 8 9
M  V30 7 1 7 10
M  V30 8 2 10 11
M  V30 9 1 11 12
M  V30 10 2 12 13
M  V30 11 1 12 14
M  V30 12 1 14 15
M  V30 13 2 15 16
M  V30 14 1 16 17
M  V30 15 2 17 18
M  V30 16 1 18 19
M  V30 17 2 19 20
M  V30 18 1 18 21
M  V30 19 1 21 22
M  V30 20 1 21 23
M  V30 21 1 21 24
M  V30 22 2 24 25
M  V30 23 1 25 26
M  V30 24 2 26 27
M  V30 25 1 27 28
M  V30 26 2 28 29
M  V30 27 1 27 30
M  V30 28 1 30 31
M  V30 29 2 31 32
M  V30 30 1 32 33
M  V30 31 1 33 34
M  V30 32 2 34 35
M  V30 33 1 34 36
M  V30 34 1 36 37
M  V30 35 2 37 38
M  V30 36 1 37 39
M  V30 37 1 39 40
M  V30 38 2 40 41
M  V30 39 1 36 42
M  V30 40 2 42 43
M  V30 41 1 43 44
M  V30 42 2 44 45
M  V30 43 1 45 46
M  V30 44 2 46 47
M  V30 45 1 45 48
M  V30 46 1 48 49
M  V30 47 2 49 50
M  V30 48 1 50 51
M  V30 49 2 51 52
M  V30 50 1 52 53
M  V30 51 2 53 54
M  V30 52 1 52 55
M  V30 53 2 55 56
M  V30 54 1 56 57
M  V30 55 2 57 58
M  V30 56 1 58 59
M  V30 57 2 59 60
M  V30 58 1 58 61
M  V30 59 1 61 62
M  V30 60 2 62 63
M  V30 61 1 63 64
M  V30 62 2 64 65
M  V30 63 1 65 66
M  V30 64 2 66 67
M  V30 65 1 8 3
M  V30 66 1 20 15
M  V30 67 1 29 24
M  V30 68 1 41 31
M  V30 69 1 47 42
M  V30 70 1 54 49
M  V30 71 1 60 55
M  V30 72 1 67 62
M  V30 73 1 13 6
M  V30 74 2 33 39
M  V30 75 1 1 3
M  V30 76 1 2 65
M  V30 END BOND
M  V30 BEGIN SGROUP
M  V30 1 SRU 0 ATOMS=(4 1 2 3 65) CBONDS=(2 75 76) -
M  V30 BRKXYZ=(9 -15.7294 1.8333 0 -15.7294 -3.3958 0 0 0 0) BRKXYZ=(9 15.7244-
M  V30  1.9006 0 15.7244 -3.3286 0 0 0 0)
M  V30 END SGROUP
M  V30 END CTAB
M  END
>  <BIGSMILES_BRACKET_RECORDS_JSON>
{
  "records": [
    {
      "id": 0,
      "bracket_kind": "backbone",
      "pairing_id": "F1/fragments[0]",
      "group_id": "<1:3",
      "ru_midpoint": [
        -0.06833422993878635,
        -0.7489489731229702
      ],
      "bond_midpoint": [
        -15.729374870582607,
        -0.7812445009483249
      ],
      "orientation_vector": [
        0.0,
        1.0
      ],
      "half_bracket_size": 2.6145824547314387,
      "bond": [
        0,
        2
      ],
      "fragment": "F1",
      "backbone": true,
      "suspended_anchor_atom": null,
      "suspended_reason": null,
      "source_label": "F1/fragments[0]",
      "marker_id": "0",
      "side": "left",
      "connection_group": "<1",
      "marker_type_index": 3
    },
    {
      "id": 1,
      "bracket_kind": "backbone",
      "pairing_id": "F1/fragments[0]",
      "group_id": ">1:4",
      "ru_midpoint": [
        -0.06833422993878635,
        -0.7489489731229702
      ],
      "bond_midpoint": [
        15.724423674569817,
        -0.7139683065671137
      ],
      "orientation_vector": [
        0.0,
        1.0
      ],
      "half_bracket_size": 2.6145824547314387,
      "bond": [
        1,
        64
      ],
      "fragment": "F1",
      "backbone": true,
      "suspended_anchor_atom": null,
      "suspended_reason": null,
      "source_label": "F1/fragments[0]",
      "marker_id": "66",
      "side": "right",
      "connection_group": ">1",
      "marker_type_index": 4
    }
  ]
}
