
     RDKit          2D

  0  0  0  0  0  0  0  0  0  0999 V3000
M  V30 BEGIN CTAB
M  V30 COUNTS 24 27 1 0 0
M  V30 BEGIN ATOM
M  V30 1 H -3.500200 -0.631680 0.000000 0
M  V30 2 H 3.499801 -0.631600 0.000000 0
M  V30 3 C -2.500200 -0.631600 0.000000 0
M  V30 4 C -2.000293 0.234400 0.000000 0
M  V30 5 C -1.000292 0.234400 0.000000 0
M  V30 6 C -0.691253 1.185448 0.000000 0
M  V30 7 C -1.500124 1.773201 0.000000 0
M  V30 8 N -2.309254 1.185353 0.000000 0
M  V30 9 C -0.500199 -0.631600 0.000000 0
M  V30 10 C -1.000107 -1.497600 0.000000 0
M  V30 11 O -0.500115 -2.363544 0.000000 0
M  V30 12 C -2.000107 -1.497600 0.000000 0
M  V30 13 O -2.500083 -2.363677 0.000000 0
M  V30 14 C 0.499801 -0.631520 0.000000 0
M  V30 15 C 0.999894 0.234480 0.000000 0
M  V30 16 C 1.999894 0.234480 0.000000 0
M  V30 17 C 2.308855 1.185434 0.000000 0
M  V30 18 C 1.499725 1.773281 0.000000 0
M  V30 19 N 0.690854 1.185528 0.000000 0
M  V30 20 C 2.499801 -0.631520 0.000000 0
M  V30 21 C 1.999708 -1.497520 0.000000 0
M  V30 22 O 2.499684 -2.363596 0.000000 0
M  V30 23 C 0.999708 -1.497520 0.000000 0
M  V30 24 O 0.499716 -2.363463 0.000000 0
M  V30 END ATOM
M  V30 BEGIN BOND
M  V30 1 2 3 4
M  V30 2 1 4 5
M  V30 3 1 5 6
M  V30 4 1 6 7
M  V30 5 2 7 8
M  V30 6 2 5 9
M  V30 7 1 9 10
M  V30 8 1 10 11
M  V30 9 2 10 12
M  V30 10 1 12 13
M  V30 11 1 9 14
M  V30 12 1 14 15
M  V30 13 2 15 16
M  V30 14 1 16 17
M  V30 15 1 17 18
M  V30 16 2 18 19
M  V30 17 1 16 20
M  V30 18 2 20 21
M  V30 19 1 21 22
M  V30 20 1 21 23
M  V30 21 1 23 24
M  V30 22 1 12 3
M  V30 23 2 23 14
M  V30 24 1 8 4
M  V30 25 1 19 15
M  V30 26 1 1 3
M  V30 27 1 2 20
M  V30 END BOND
M  V30 BEGIN SGROUP
M  V30 1 SRU 0 ATOMS=(4 1 2 3 20) CBONDS=(2 26 27) -
M  V30 BRKXYZ=(9 -3.0002 2.6392 0 -3.0002 -3.9025 0 0 0 0) BRKXYZ=(9 2.9998 2.-
M  V30 6393 0 2.9998 -3.9024 0 0 0 0)
M  V30 END SGROUP
M  V30 END CTAB
M  END
>  <BIGSMILES_BRACKET_RECORDS_JSON>
{
  "records": [
    {
      "id": 0,
      "bracket_kind": "backbone",
      "pairing_id": "F1/fragments[0]",
      "group_id": "$a:2",
      "ru_midpoint": [
        -0.00019943418023116166,
        -0.02768776336636769
      ],
      "bond_midpoint": [
        -3.000200070950597,
        -0.6316402855840543
      ],
      "orientation_vector": [
        0.0,
        1.0
      ],
      "half_bracket_size": 3.270881401631966,
      "bond": [
        0,
        2
      ],
      "fragment": "F1",
      "backbone": true,
      "suspended_anchor_atom": null,
      "suspended_reason": null,
      "source_label": "F1/fragments[0]",
      "marker_id": "0",
      "side": "left",
      "connection_group": "$a",
      "marker_type_index": 2
    },
    {
      "id": 1,
      "bracket_kind": "backbone",
      "pairing_id": "F1/fragments[0]",
      "group_id": "$a:2",
      "ru_midpoint": [
        -0.00019943418023116166,
        -0.02768776336636769
      ],
      "bond_midpoint": [
        2.9998012025901355,
        -0.6315599172959246
      ],
      "orientation_vector": [
        0.0,
        1.0
      ],
      "half_bracket_size": 3.270881401631966,
      "bond": [
        1,
        19
      ],
      "fragment": "F1",
      "backbone": true,
      "suspended_anchor_atom": null,
      "suspended_reason": null,
      "source_label": "F1/fragments[0]",
      "marker_id": "23",
      "side": "right",
      "connection_group": "$a",
      "marker_type_index": 2
    }
  ]
}
