
     RDKit          2D

  0  0  0  0  0  0  0  0  0  0999 V3000
M  V30 BEGIN CTAB
M  V30 COUNTS 17 16 3 0 0
M  V30 BEGIN ATOM
M  V30 1 H -3.259556 -0.448594 0.000000 0
M  V30 2 H 2.529876 0.051394 0.000000 0
M  V30 3 C -1.664057 0.051394 0.000000 0
M  V30 4 F -1.664057 1.051372 0.000000 0
M  V30 5 F -1.664057 -0.948606 0.000000 0
M  V30 6 C -0.068559 -0.448594 0.000000 0
M  V30 7 F -0.068559 0.551383 0.000000 0
M  V30 8 C -0.068559 -1.448572 0.000000 0
M  V30 9 F -1.068537 -1.448572 0.000000 0
M  V30 10 F -0.568570 -2.314592 0.000000 0
M  V30 11 F 0.797461 -1.948583 0.000000 0
M  V30 12 C 0.797473 0.051394 0.000000 0
M  V30 13 F 0.797473 -0.948588 0.000000 0
M  V30 14 F 0.797473 1.051462 0.000000 0
M  V30 15 C 1.663674 -0.448410 0.000000 0
M  V30 16 F 1.663674 -1.448392 0.000000 0
M  V30 17 F 1.663674 0.551657 0.000000 0
M  V30 END ATOM
M  V30 BEGIN BOND
M  V30 1 1 3 4
M  V30 2 1 3 5
M  V30 3 1 3 6
M  V30 4 1 6 7
M  V30 5 1 6 8
M  V30 6 1 8 9
M  V30 7 1 8 10
M  V30 8 1 8 11
M  V30 9 1 12 13
M  V30 10 1 12 14
M  V30 11 1 12 15
M  V30 12 1 15 16
M  V30 13 1 15 17
M  V30 14 1 6 12
M  V30 15 1 1 3
M  V30 16 1 2 15
M  V30 END BOND
M  V30 BEGIN SGROUP
M  V30 1 SRU 0 ATOMS=(4 1 3 6 12) CBONDS=(2 14 15) -
M  V30 BRKXYZ=(9 -2.4618 0.3014 0 -2.4618 -0.6986 0 0 0 0) BRKXYZ=(9 0.3645 0.-
M  V30 3014 0 0.3645 -0.6986 0 0 0 0)
M  V30 2 SRU 0 ATOMS=(4 2 6 12 15) CBONDS=(2 14 16) -
M  V30 BRKXYZ=(9 0.3645 -0.6986 0 0.3645 0.3014 0 0 0 0) BRKXYZ=(9 2.0968 -0.6-
M  V30 985 0 2.0968 0.3015 0 0 0 0)
M  V30 3 SRU 0 ATOMS=(4 1 2 3 15) CBONDS=(2 15 16) -
M  V30 BRKXYZ=(9 -2.4618 3.1675 0 -2.4618 -3.5647 0 0 0 0) BRKXYZ=(9 2.0968 3.-
M  V30 1675 0 2.0968 -3.5646 0 0 0 0)
M  V30 END SGROUP
M  V30 END CTAB
M  END
>  <BIGSMILES_BRACKET_RECORDS_JSON>
{
  "records": [
    {
      "id": 0,
      "bracket_kind": "backbone",
      "pairing_id": "F1/fragments[0]",
      "group_id": "$a:2",
      "ru_midpoint": [
        -1.2310475132104146,
        -0.19860000000000003
      ],
      "bond_midpoint": [
        -2.461806308969071,
        -0.1985999999999999
      ],
      "orientation_vector": [
        0.0,
        1.0
      ],
      "half_bracket_size": 0.4999889997176581,
      "bond": [
        0,
        2
      ],
      "fragment": "F1",
      "backbone": true,
      "suspended_anchor_atom": null,
      "suspended_reason": null,
      "source_label": "F1/fragments[0]",
      "marker_id": "0",
      "side": "left",
      "connection_group": "$a",
      "marker_type_index": 2
    },
    {
      "id": 1,
      "bracket_kind": "backbone",
      "pairing_id": "F1/fragments[0]",
      "group_id": "$a:2",
      "ru_midpoint": [
        -1.2310475132104146,
        -0.19860000000000003
      ],
      "bond_midpoint": [
        0.3644573762982417,
        -0.1985999999999999
      ],
      "orientation_vector": [
        0.0,
        1.0
      ],
      "half_bracket_size": 0.4999889997176581,
      "bond": [
        5,
        11
      ],
      "fragment": "F1",
      "backbone": true,
      "suspended_anchor_atom": null,
      "suspended_reason": null,
      "source_label": "F1/fragments[0]",
      "marker_id": "10",
      "side": "right",
      "connection_group": "$a",
      "marker_type_index": 2
    },
    {
      "id": 2,
      "bracket_kind": "backbone",
      "pairing_id": "F1/fragments[1]",
      "group_id": "$a:2",
      "ru_midpoint": [
        1.2306206465343388,
        -0.19853429053932808
      ],
      "bond_midpoint": [
        0.3644573762982417,
        -0.1985999999999999
      ],
      "orientation_vector": [
        0.0,
        -1.0
      ],
      "half_bracket_size": 0.4999889997176581,
      "bond": [
        5,
        11
      ],
      "fragment": "F1",
      "backbone": true,
      "suspended_anchor_atom": null,
      "suspended_reason": null,
      "source_label": "F1/fragments[1]",
      "marker_id": "0",
      "side": "left",
      "connection_group": "$a",
      "marker_type_index": 2
    },
    {
      "id": 3,
      "bracket_kind": "backbone",
      "pairing_id": "F1/fragments[1]",
      "group_id": "$a:2",
      "ru_midpoint": [
        1.2306206465343388,
        -0.19853429053932808
      ],
      "bond_midpoint": [
        2.096775053428674,
        -0.19850770170027016
      ],
      "orientation_vector": [
        0.0,
        -1.0
      ],
      "half_bracket_size": 0.4999889997176581,
      "bond": [
        1,
        14
      ],
      "fragment": "F1",
      "backbone": true,
      "suspended_anchor_atom": null,
      "suspended_reason": null,
      "source_label": "F1/fragments[1]",
      "marker_id": "7",
      "side": "right",
      "connection_group": "$a",
      "marker_type_index": 2
    },
    {
      "id": 4,
      "bracket_kind": "backbone",
      "pairing_id": "F1/connected",
      "group_id": "$overall",
      "ru_midpoint": [
        -0.24333104931496696,
        -0.1985958227391483
      ],
      "bond_midpoint": [
        -2.461806308969071,
        -0.1985999999999999
      ],
      "orientation_vector": [
        0.0,
        1.0
      ],
      "half_bracket_size": 3.366053329841245,
      "bond": [
        0,
        2
      ],
      "fragment": "F1",
      "backbone": true,
      "suspended_anchor_atom": null,
      "suspended_reason": null,
      "source_label": "F1/connected",
      "marker_id": "connected-overall-left",
      "side": "left",
      "connection_group": "$overall",
      "marker_type_index": null
    },
    {
      "id": 5,
      "bracket_kind": "backbone",
      "pairing_id": "F1/connected",
      "group_id": "$overall",
      "ru_midpoint": [
        -0.24333104931496696,
        -0.1985958227391483
      ],
      "bond_midpoint": [
        2.096775053428674,
        -0.19850770170027016
      ],
      "orientation_vector": [
        0.0,
        1.0
      ],
      "half_bracket_size": 3.366053329841245,
      "bond": [
        1,
        14
      ],
      "fragment": "F1",
      "backbone": true,
      "suspended_anchor_atom": null,
      "suspended_reason": null,
      "source_label": "F1/connected",
      "marker_id": "connected-overall-right",
      "side": "right",
      "connection_group": "$overall",
      "marker_type_index": null
    }
  ]
}
