
     RDKit          2D

  0  0  0  0  0  0  0  0  0  0999 V3000
M  V30 BEGIN CTAB
M  V30 COUNTS 17 18 1 0 0
M  V30 BEGIN ATOM
M  V30 1 H -4.566971 0.117994 0.000000 0
M  V30 2 H 4.432972 -0.382006 0.000000 0
M  V30 3 O -3.566971 -0.382006 0.000000 0
M  V30 4 C -2.566971 -0.382006 0.000000 0
M  V30 5 C -2.066978 0.484006 0.000000 0
M  V30 6 C -1.066992 0.484006 0.000000 0
M  V30 7 C -0.566999 -0.382006 0.000000 0
M  V30 8 C -1.066992 -1.248019 0.000000 0
M  V30 9 C -2.066978 -1.248019 0.000000 0
M  V30 10 C 0.433001 -0.382006 0.000000 0
M  V30 11 O 0.433001 -1.382007 0.000000 0
M  V30 12 C 1.433001 -0.382006 0.000000 0
M  V30 13 C 1.932993 0.484006 0.000000 0
M  V30 14 C 2.932979 0.484006 0.000000 0
M  V30 15 C 3.432972 -0.382006 0.000000 0
M  V30 16 C 2.932979 -1.248019 0.000000 0
M  V30 17 C 1.932993 -1.248019 0.000000 0
M  V30 END ATOM
M  V30 BEGIN BOND
M  V30 1 1 3 4
M  V30 2 2 4 5
M  V30 3 1 5 6
M  V30 4 2 6 7
M  V30 5 1 7 8
M  V30 6 2 8 9
M  V30 7 1 7 10
M  V30 8 2 10 11
M  V30 9 1 10 12
M  V30 10 2 12 13
M  V30 11 1 13 14
M  V30 12 2 14 15
M  V30 13 1 15 16
M  V30 14 2 16 17
M  V30 15 1 9 4
M  V30 16 1 17 12
M  V30 17 1 1 3
M  V30 18 1 2 15
M  V30 END BOND
M  V30 BEGIN SGROUP
M  V30 1 SRU 0 ATOMS=(4 1 2 3 15) CBONDS=(2 17 18) -
M  V30 BRKXYZ=(9 -4.0670 1.6000 0 -4.0670 -1.8640 0 0 0 0) BRKXYZ=(9 3.9330 1.-
M  V30 3500 0 3.9330 -2.1140 0 0 0 0)
M  V30 END SGROUP
M  V30 END CTAB
M  END
>  <BIGSMILES_BRACKET_RECORDS_JSON>
{
  "records": [
    {
      "id": 0,
      "bracket_kind": "backbone",
      "pairing_id": "F1/fragments[0]",
      "group_id": "<1:3",
      "ru_midpoint": [
        0.061865060336270705,
        -0.41320649205954707
      ],
      "bond_midpoint": [
        -4.066970752191712,
        -0.13200649205954676
      ],
      "orientation_vector": [
        0.0,
        1.0
      ],
      "half_bracket_size": 1.7320259682381896,
      "bond": [
        0,
        2
      ],
      "fragment": "F1",
      "backbone": true,
      "suspended_anchor_atom": null,
      "suspended_reason": null,
      "source_label": "F1/fragments[0]",
      "marker_id": "0",
      "side": "left",
      "connection_group": "<1",
      "marker_type_index": 3
    },
    {
      "id": 1,
      "bracket_kind": "backbone",
      "pairing_id": "F1/fragments[0]",
      "group_id": ">1:4",
      "ru_midpoint": [
        0.061865060336270705,
        -0.41320649205954707
      ],
      "bond_midpoint": [
        3.93297188383125,
        -0.38200649205954784
      ],
      "orientation_vector": [
        0.0,
        1.0
      ],
      "half_bracket_size": 1.7320259682381896,
      "bond": [
        1,
        14
      ],
      "fragment": "F1",
      "backbone": true,
      "suspended_anchor_atom": null,
      "suspended_reason": null,
      "source_label": "F1/fragments[0]",
      "marker_id": "16",
      "side": "right",
      "connection_group": ">1",
      "marker_type_index": 4
    }
  ]
}
