
     RDKit          2D

  0  0  0  0  0  0  0  0  0  0999 V3000
M  V30 BEGIN CTAB
M  V30 COUNTS 10 9 3 0 0
M  V30 BEGIN ATOM
M  V30 1 H -2.165311 -0.448650 0.000000 0
M  V30 2 H 2.164982 0.051450 0.000000 0
M  V30 3 C -1.299306 0.051450 0.000000 0
M  V30 4 C -0.433302 -0.448650 0.000000 0
M  V30 5 C 0.432666 0.051450 0.000000 0
M  V30 6 C 1.298824 -0.448448 0.000000 0
M  V30 7 O 1.298824 -1.448350 0.000000 0
M  V30 8 C 0.432822 -1.948419 0.000000 0
M  V30 9 O -0.433179 -1.448386 0.000000 0
M  V30 10 C 0.432822 -2.948321 0.000000 0
M  V30 END ATOM
M  V30 BEGIN BOND
M  V30 1 1 3 4
M  V30 2 1 5 6
M  V30 3 1 6 7
M  V30 4 1 7 8
M  V30 5 2 8 9
M  V30 6 1 8 10
M  V30 7 1 4 5
M  V30 8 1 1 3
M  V30 9 1 2 6
M  V30 END BOND
M  V30 BEGIN SGROUP
M  V30 1 SRU 0 ATOMS=(4 1 3 4 5) CBONDS=(2 7 8) -
M  V30 BRKXYZ=(9 -1.7323 0.3015 0 -1.7323 -0.6987 0 0 0 0) BRKXYZ=(9 -0.0003 0-
M  V30 .3015 0 -0.0003 -0.6987 0 0 0 0)
M  V30 2 SRU 0 ATOMS=(4 2 4 5 6) CBONDS=(2 7 9) -
M  V30 BRKXYZ=(9 -0.0003 0.3015 0 -0.0003 -0.6987 0 0 0 0) BRKXYZ=(9 1.7319 0.-
M  V30 3016 0 1.7319 -0.6986 0 0 0 0)
M  V30 3 SRU 0 ATOMS=(4 1 2 3 6) CBONDS=(2 8 9) -
M  V30 BRKXYZ=(9 -1.7323 2.8012 0 -1.7323 -3.1984 0 0 0 0) BRKXYZ=(9 1.7319 2.-
M  V30 8013 0 1.7319 -3.1983 0 0 0 0)
M  V30 END SGROUP
M  V30 END CTAB
M  END
>  <BIGSMILES_BRACKET_RECORDS_JSON>
{
  "records": [
    {
      "id": 0,
      "bracket_kind": "backbone",
      "pairing_id": "F1/fragments[0]",
      "group_id": "$a:2",
      "ru_midpoint": [
        -0.8663189938613196,
        -0.19860616600689218
      ],
      "bond_midpoint": [
        -1.732308599434922,
        -0.1985999999999999
      ],
      "orientation_vector": [
        0.0,
        1.0
      ],
      "half_bracket_size": 0.5001001599500253,
      "bond": [
        0,
        2
      ],
      "fragment": "F1",
      "backbone": true,
      "suspended_anchor_atom": null,
      "suspended_reason": null,
      "source_label": "F1/fragments[0]",
      "marker_id": "0",
      "side": "left",
      "connection_group": "$a",
      "marker_type_index": 2
    },
    {
      "id": 1,
      "bracket_kind": "backbone",
      "pairing_id": "F1/fragments[0]",
      "group_id": "$a:2",
      "ru_midpoint": [
        -0.8663189938613196,
        -0.19860616600689218
      ],
      "bond_midpoint": [
        -0.0003180339156558798,
        -0.1985999999999998
      ],
      "orientation_vector": [
        0.0,
        1.0
      ],
      "half_bracket_size": 0.5001001599500253,
      "bond": [
        3,
        4
      ],
      "fragment": "F1",
      "backbone": true,
      "suspended_anchor_atom": null,
      "suspended_reason": null,
      "source_label": "F1/fragments[0]",
      "marker_id": "3",
      "side": "right",
      "connection_group": "$a",
      "marker_type_index": 2
    },
    {
      "id": 2,
      "bracket_kind": "backbone",
      "pairing_id": "F1/fragments[1]",
      "group_id": "$a:2",
      "ru_midpoint": [
        0.8658386159429701,
        -0.19850009318944514
      ],
      "bond_midpoint": [
        -0.0003180339156558798,
        -0.1985999999999998
      ],
      "orientation_vector": [
        0.0,
        1.0
      ],
      "half_bracket_size": 0.5001001599500253,
      "bond": [
        3,
        4
      ],
      "fragment": "F1",
      "backbone": true,
      "suspended_anchor_atom": null,
      "suspended_reason": null,
      "source_label": "F1/fragments[1]",
      "marker_id": "0",
      "side": "left",
      "connection_group": "$a",
      "marker_type_index": 2
    },
    {
      "id": 3,
      "bracket_kind": "backbone",
      "pairing_id": "F1/fragments[1]",
      "group_id": "$a:2",
      "ru_midpoint": [
        0.8658386159429701,
        -0.19850009318944514
      ],
      "bond_midpoint": [
        1.7319032695029681,
        -0.19849907963943803
      ],
      "orientation_vector": [
        0.0,
        1.0
      ],
      "half_bracket_size": 0.5001001599500253,
      "bond": [
        1,
        5
      ],
      "fragment": "F1",
      "backbone": true,
      "suspended_anchor_atom": null,
      "suspended_reason": null,
      "source_label": "F1/fragments[1]",
      "marker_id": "7",
      "side": "right",
      "connection_group": "$a",
      "marker_type_index": 2
    },
    {
      "id": 4,
      "bracket_kind": "backbone",
      "pairing_id": "F1/connected",
      "group_id": "$overall",
      "ru_midpoint": [
        -0.0002300709183122862,
        -0.19857353943671216
      ],
      "bond_midpoint": [
        -1.732308599434922,
        -0.1985999999999999
      ],
      "orientation_vector": [
        0.0,
        1.0
      ],
      "half_bracket_size": 2.999771146270928,
      "bond": [
        0,
        2
      ],
      "fragment": "F1",
      "backbone": true,
      "suspended_anchor_atom": null,
      "suspended_reason": null,
      "source_label": "F1/connected",
      "marker_id": "connected-overall-left",
      "side": "left",
      "connection_group": "$overall",
      "marker_type_index": null
    },
    {
      "id": 5,
      "bracket_kind": "backbone",
      "pairing_id": "F1/connected",
      "group_id": "$overall",
      "ru_midpoint": [
        -0.0002300709183122862,
        -0.19857353943671216
      ],
      "bond_midpoint": [
        1.7319032695029681,
        -0.19849907963943803
      ],
      "orientation_vector": [
        0.0,
        1.0
      ],
      "half_bracket_size": 2.999771146270928,
      "bond": [
        1,
        5
      ],
      "fragment": "F1",
      "backbone": true,
      "suspended_anchor_atom": null,
      "suspended_reason": null,
      "source_label": "F1/connected",
      "marker_id": "connected-overall-right",
      "side": "right",
      "connection_group": "$overall",
      "marker_type_index": null
    }
  ]
}
