
     RDKit          2D

  0  0  0  0  0  0  0  0  0  0999 V3000
M  V30 BEGIN CTAB
M  V30 COUNTS 30 33 2 0 0
M  V30 BEGIN ATOM
M  V30 1 H -4.799196 -0.015594 0.000000 0
M  V30 2 H 4.798798 0.484406 0.000000 0
M  V30 3 C -3.799196 -0.015594 0.000000 0
M  V30 4 C -3.299204 -0.881606 0.000000 0
M  V30 5 C -2.299218 -0.881606 0.000000 0
M  V30 6 C -1.799225 -0.015594 0.000000 0
M  V30 7 C -2.299218 0.850419 0.000000 0
M  V30 8 C -3.299204 0.850419 0.000000 0
M  V30 9 N -0.799225 -0.015594 0.000000 0
M  V30 10 C -0.799225 -1.015579 0.000000 0
M  V30 11 O -1.665232 -1.515568 0.000000 0
M  V30 12 N 0.066788 -1.515572 0.000000 0
M  V30 13 C 0.066788 -2.515587 0.000000 0
M  V30 14 C 0.932835 -3.015414 0.000000 0
M  V30 15 C 0.932928 -4.015414 0.000000 0
M  V30 16 C 0.066974 -4.515588 0.000000 0
M  V30 17 R 0.067067 -5.515588 0.000000 2
M  V30 18 C -0.799073 -4.015761 0.000000 0
M  V30 19 C -0.799166 -3.015761 0.000000 0
M  V30 20 C 0.932801 -1.015579 0.000000 0
M  V30 21 O 1.798795 -1.515561 0.000000 0
M  V30 22 N 0.932801 -0.015594 0.000000 0
M  V30 23 C 0.066788 0.484399 0.000000 0
M  V30 24 O 0.066788 1.484414 0.000000 0
M  V30 25 C 1.798826 0.484406 0.000000 0
M  V30 26 C 2.298819 -0.381606 0.000000 0
M  V30 27 C 3.298805 -0.381606 0.000000 0
M  V30 28 C 3.798798 0.484406 0.000000 0
M  V30 29 C 3.298805 1.350419 0.000000 0
M  V30 30 C 2.298819 1.350419 0.000000 0
M  V30 END ATOM
M  V30 BEGIN BOND
M  V30 1 2 3 4
M  V30 2 1 4 5
M  V30 3 2 5 6
M  V30 4 1 6 7
M  V30 5 2 7 8
M  V30 6 1 6 9
M  V30 7 1 9 10
M  V30 8 2 10 11
M  V30 9 1 10 12
M  V30 10 1 12 13
M  V30 11 2 13 14
M  V30 12 1 14 15
M  V30 13 2 15 16
M  V30 14 1 16 17
M  V30 15 1 16 18
M  V30 16 2 18 19
M  V30 17 1 12 20
M  V30 18 2 20 21
M  V30 19 1 20 22
M  V30 20 1 22 23
M  V30 21 2 23 24
M  V30 22 1 22 25
M  V30 23 2 25 26
M  V30 24 1 26 27
M  V30 25 2 27 28
M  V30 26 1 28 29
M  V30 27 2 29 30
M  V30 28 1 8 3
M  V30 29 1 23 9
M  V30 30 1 30 25
M  V30 31 1 19 13
M  V30 32 1 1 3
M  V30 33 1 2 28
M  V30 END BOND
M  V30 BEGIN SGROUP
M  V30 1 SRU 0 ATOMS=(4 1 2 3 28) CBONDS=(2 32 33) -
M  V30 BRKXYZ=(9 -4.2992 2.8504 0 -4.2992 -2.8816 0 0 0 0) BRKXYZ=(9 4.2988 3.-
M  V30 3504 0 4.2988 -2.3816 0 0 0 0)
M  V30 2 SRU 0 ATOMS=(2 16 17) CBONDS=(1 14) -
M  V30 BRKXYZ=(9 0.5670 -5.0155 0 -0.4330 -5.0156 0 0 0 0)
M  V30 END SGROUP
M  V30 END CTAB
M  END
>  <BIGSMILES_BRACKET_RECORDS_JSON>
{
  "records": [
    {
      "id": 0,
      "bracket_kind": "backbone",
      "pairing_id": "F1/fragments[0]",
      "group_id": "$a:2",
      "ru_midpoint": [
        0.019896755252103326,
        0.009408650190836365
      ],
      "bond_midpoint": [
        -4.299196397891561,
        -0.015593507940453777
      ],
      "orientation_vector": [
        0.0,
        1.0
      ],
      "half_bracket_size": 2.865991402806201,
      "bond": [
        0,
        2
      ],
      "fragment": "F1",
      "backbone": true,
      "suspended_anchor_atom": null,
      "suspended_reason": null,
      "source_label": "F1/fragments[0]",
      "marker_id": "0",
      "side": "left",
      "connection_group": "$a",
      "marker_type_index": 2
    },
    {
      "id": 1,
      "bracket_kind": "backbone",
      "pairing_id": "F1/fragments[0]",
      "group_id": "$a:2",
      "ru_midpoint": [
        0.019896755252103326,
        0.009408650190836365
      ],
      "bond_midpoint": [
        4.2987975295310985,
        0.48440649205954767
      ],
      "orientation_vector": [
        0.0,
        1.0
      ],
      "half_bracket_size": 2.865991402806201,
      "bond": [
        1,
        27
      ],
      "fragment": "F1",
      "backbone": true,
      "suspended_anchor_atom": null,
      "suspended_reason": null,
      "source_label": "F1/fragments[0]",
      "marker_id": "29",
      "side": "right",
      "connection_group": "$a",
      "marker_type_index": 2
    },
    {
      "id": 2,
      "bracket_kind": "pendant",
      "pairing_id": "F1/fragments[0]",
      "group_id": "$a:2",
      "ru_midpoint": [
        0.019896755252103326,
        0.009408650190836365
      ],
      "bond_midpoint": [
        0.06702061678375382,
        -5.01558775200256
      ],
      "orientation_vector": [
        0.9999999956660914,
        9.310111268927062e-05
      ],
      "half_bracket_size": 0.5000001599999745,
      "bond": [
        15,
        16
      ],
      "fragment": "F1",
      "backbone": false,
      "suspended_anchor_atom": null,
      "suspended_reason": null,
      "source_label": "F1/fragments[0]",
      "marker_id": "15",
      "side": "right",
      "connection_group": "$a",
      "marker_type_index": 2
    }
  ]
}
