
     RDKit          2D

  0  0  0  0  0  0  0  0  0  0999 V3000
M  V30 BEGIN CTAB
M  V30 COUNTS 25 24 6 0 0
M  V30 BEGIN ATOM
M  V30 1 H -0.865951 0.218234 0.000000 0
M  V30 2 H 12.990183 0.218072 0.000000 0
M  V30 3 C 0.000045 -0.281866 0.000000 0
M  V30 4 C 0.866041 0.218234 0.000000 0
M  V30 5 O 1.731930 -0.281866 0.000000 0
M  V30 6 C 2.597992 0.218072 0.000000 0
M  V30 7 C 3.463996 -0.281828 0.000000 0
M  V30 8 C 4.329992 0.218072 0.000000 0
M  V30 9 C 4.329992 1.218072 0.000000 0
M  V30 10 C 5.195996 -0.281828 0.000000 0
M  V30 11 C 6.062080 0.218072 0.000000 0
M  V30 12 C 6.928009 -0.281944 0.000000 0
M  V30 13 C 7.794025 0.218072 0.000000 0
M  V30 14 C 7.794025 1.218096 0.000000 0
M  V30 15 C 8.660079 -0.281944 0.000000 0
M  V30 16 C 9.526095 0.218072 0.000000 0
M  V30 17 C 10.392091 -0.281828 0.000000 0
M  V30 18 C 10.392091 -1.281760 0.000000 0
M  V30 19 C 9.526205 -1.781851 0.000000 0
M  V30 20 C 11.258150 -1.781702 0.000000 0
M  V30 21 C 11.258174 0.218072 0.000000 0
M  V30 22 C 12.124178 -0.281828 0.000000 0
M  V30 23 C 12.124178 -1.281753 0.000000 0
M  V30 24 C 11.258286 -1.781847 0.000000 0
M  V30 25 C 12.124178 0.718096 0.000000 0
M  V30 END ATOM
M  V30 BEGIN BOND
M  V30 1 1 3 4
M  V30 2 1 4 5
M  V30 3 1 1 3
M  V30 4 1 6 7
M  V30 5 2 7 8
M  V30 6 1 8 9
M  V30 7 1 8 10
M  V30 8 1 11 12
M  V30 9 2 12 13
M  V30 10 1 13 14
M  V30 11 1 13 15
M  V30 12 1 10 11
M  V30 13 1 16 17
M  V30 14 1 17 18
M  V30 15 1 18 19
M  V30 16 2 18 20
M  V30 17 1 15 16
M  V30 18 1 21 22
M  V30 19 1 22 23
M  V30 20 2 23 24
M  V30 21 1 22 25
M  V30 22 1 17 21
M  V30 23 1 5 6
M  V30 24 1 2 22
M  V30 END BOND
M  V30 BEGIN SGROUP
M  V30 1 SRU 0 ATOMS=(4 5 6 10 11) CBONDS=(2 12 23) -
M  V30 BRKXYZ=(9 2.1650 -0.5319 0 2.1650 0.4681 0 0 0 0) BRKXYZ=(9 5.6290 -0.5-
M  V30 319 0 5.6290 0.4681 0 0 0 0)
M  V30 2 SRU 0 ATOMS=(4 10 11 15 16) CBONDS=(2 12 17) -
M  V30 BRKXYZ=(9 5.6290 -0.5319 0 5.6290 0.4681 0 0 0 0) BRKXYZ=(9 9.0931 -0.5-
M  V30 320 0 9.0931 0.4681 0 0 0 0)
M  V30 3 SRU 0 ATOMS=(4 15 16 17 21) CBONDS=(2 17 22) -
M  V30 BRKXYZ=(9 9.0931 0.4681 0 9.0931 -0.5320 0 0 0 0) BRKXYZ=(9 10.8251 0.4-
M  V30 681 0 10.8251 -0.5319 0 0 0 0)
M  V30 4 SRU 0 ATOMS=(4 2 17 21 22) CBONDS=(2 22 24) -
M  V30 BRKXYZ=(9 10.8251 0.4681 0 10.8251 -0.5319 0 0 0 0) BRKXYZ=(9 12.5572 0-
M  V30 .4681 0 12.5572 -0.5319 0 0 0 0)
M  V30 5 SRU 0 ATOMS=(4 2 5 6 22) CBONDS=(2 23 24) -
M  V30 BRKXYZ=(9 2.1650 -3.0318 0 2.1650 2.9680 0 0 0 0) BRKXYZ=(9 12.5572 -3.-
M  V30 0318 0 12.5572 2.9681 0 0 0 0)
M  V30 6 SRU 0 ATOMS=(4 1 3 5 6) CBONDS=(2 3 23) -
M  V30 BRKXYZ=(9 -0.4330 0.4683 0 -0.4330 -0.5319 0 0 0 0) BRKXYZ=(9 2.1650 0.-
M  V30 4682 0 2.1650 -0.5320 0 0 0 0)
M  V30 END SGROUP
M  V30 END CTAB
M  END
>  <BIGSMILES_BRACKET_RECORDS_JSON>
{
  "records": [
    {
      "id": 0,
      "bracket_kind": "backbone",
      "pairing_id": "F2/fragments[0]",
      "group_id": "$a:2",
      "ru_midpoint": [
        3.8969940310310314,
        -0.03187838914816202
      ],
      "bond_midpoint": [
        2.1649609000804975,
        -0.03189718751466106
      ],
      "orientation_vector": [
        0.0,
        -1.0
      ],
      "half_bracket_size": 0.5000159978427487,
      "bond": [
        4,
        5
      ],
      "fragment": "F2",
      "backbone": true,
      "suspended_anchor_atom": null,
      "suspended_reason": null,
      "source_label": "F2/fragments[0]",
      "marker_id": "0",
      "side": "left",
      "connection_group": "$a",
      "marker_type_index": 2
    },
    {
      "id": 1,
      "bracket_kind": "backbone",
      "pairing_id": "F2/fragments[0]",
      "group_id": "$a:2",
      "ru_midpoint": [
        3.8969940310310314,
        -0.03187838914816202
      ],
      "bond_midpoint": [
        5.629038012878212,
        -0.03187838914816196
      ],
      "orientation_vector": [
        0.0,
        -1.0
      ],
      "half_bracket_size": 0.5000159978427487,
      "bond": [
        9,
        10
      ],
      "fragment": "F2",
      "backbone": true,
      "suspended_anchor_atom": null,
      "suspended_reason": null,
      "source_label": "F2/fragments[0]",
      "marker_id": "6",
      "side": "right",
      "connection_group": "$a",
      "marker_type_index": 2
    },
    {
      "id": 2,
      "bracket_kind": "backbone",
      "pairing_id": "F2/fragments[1]",
      "group_id": "$a:2",
      "ru_midpoint": [
        7.361063076226446,
        -0.031936308061855045
      ],
      "bond_midpoint": [
        5.629038012878212,
        -0.03187838914816196
      ],
      "orientation_vector": [
        0.0,
        -1.0
      ],
      "half_bracket_size": 0.5000159978427487,
      "bond": [
        9,
        10
      ],
      "fragment": "F2",
      "backbone": true,
      "suspended_anchor_atom": null,
      "suspended_reason": null,
      "source_label": "F2/fragments[1]",
      "marker_id": "0",
      "side": "left",
      "connection_group": "$a",
      "marker_type_index": 2
    },
    {
      "id": 3,
      "bracket_kind": "backbone",
      "pairing_id": "F2/fragments[1]",
      "group_id": "$a:2",
      "ru_midpoint": [
        7.361063076226446,
        -0.031936308061855045
      ],
      "bond_midpoint": [
        9.093086598325758,
        -0.031936308061855045
      ],
      "orientation_vector": [
        0.0,
        -1.0
      ],
      "half_bracket_size": 0.5000159978427487,
      "bond": [
        14,
        15
      ],
      "fragment": "F2",
      "backbone": true,
      "suspended_anchor_atom": null,
      "suspended_reason": null,
      "source_label": "F2/fragments[1]",
      "marker_id": "6",
      "side": "right",
      "connection_group": "$a",
      "marker_type_index": 2
    },
    {
      "id": 4,
      "bracket_kind": "backbone",
      "pairing_id": "F2/fragments[2]",
      "group_id": "$a:2",
      "ru_midpoint": [
        9.959112547567447,
        -0.03187838914816188
      ],
      "bond_midpoint": [
        9.093086598325758,
        -0.031936308061855045
      ],
      "orientation_vector": [
        0.0,
        1.0
      ],
      "half_bracket_size": 0.5000159978427487,
      "bond": [
        14,
        15
      ],
      "fragment": "F2",
      "backbone": true,
      "suspended_anchor_atom": null,
      "suspended_reason": null,
      "source_label": "F2/fragments[2]",
      "marker_id": "0",
      "side": "left",
      "connection_group": "$a",
      "marker_type_index": 2
    },
    {
      "id": 5,
      "bracket_kind": "backbone",
      "pairing_id": "F2/fragments[2]",
      "group_id": "$a:2",
      "ru_midpoint": [
        9.959112547567447,
        -0.03187838914816188
      ],
      "bond_midpoint": [
        10.82513240801559,
        -0.031878389148161906
      ],
      "orientation_vector": [
        0.0,
        1.0
      ],
      "half_bracket_size": 0.5000159978427487,
      "bond": [
        16,
        20
      ],
      "fragment": "F2",
      "backbone": true,
      "suspended_anchor_atom": null,
      "suspended_reason": null,
      "source_label": "F2/fragments[2]",
      "marker_id": "6",
      "side": "right",
      "connection_group": "$a",
      "marker_type_index": 2
    },
    {
      "id": 6,
      "bracket_kind": "backbone",
      "pairing_id": "F2/fragments[3]",
      "group_id": "$a:2",
      "ru_midpoint": [
        11.691163095612396,
        -0.031870391129504405
      ],
      "bond_midpoint": [
        10.82513240801559,
        -0.031878389148161906
      ],
      "orientation_vector": [
        0.0,
        1.0
      ],
      "half_bracket_size": 0.5000159978427487,
      "bond": [
        16,
        20
      ],
      "fragment": "F2",
      "backbone": true,
      "suspended_anchor_atom": null,
      "suspended_reason": null,
      "source_label": "F2/fragments[3]",
      "marker_id": "0",
      "side": "left",
      "connection_group": "$a",
      "marker_type_index": 2
    },
    {
      "id": 7,
      "bracket_kind": "backbone",
      "pairing_id": "F2/fragments[3]",
      "group_id": "$a:2",
      "ru_midpoint": [
        11.691163095612396,
        -0.031870391129504405
      ],
      "bond_midpoint": [
        12.55718046607391,
        -0.031878389148161906
      ],
      "orientation_vector": [
        0.0,
        1.0
      ],
      "half_bracket_size": 0.5000159978427487,
      "bond": [
        1,
        21
      ],
      "fragment": "F2",
      "backbone": true,
      "suspended_anchor_atom": null,
      "suspended_reason": null,
      "source_label": "F2/fragments[3]",
      "marker_id": "6",
      "side": "right",
      "connection_group": "$a",
      "marker_type_index": 2
    },
    {
      "id": 8,
      "bracket_kind": "backbone",
      "pairing_id": "F2/connected",
      "group_id": "$overall",
      "ru_midpoint": [
        7.3610274615716245,
        -0.03188693939055956
      ],
      "bond_midpoint": [
        2.1649609000804975,
        -0.03189718751466106
      ],
      "orientation_vector": [
        0.0,
        -1.0
      ],
      "half_bracket_size": 2.9999470747103505,
      "bond": [
        4,
        5
      ],
      "fragment": "F2",
      "backbone": true,
      "suspended_anchor_atom": null,
      "suspended_reason": null,
      "source_label": "F2/connected",
      "marker_id": "connected-overall-left",
      "side": "left",
      "connection_group": "$overall",
      "marker_type_index": null
    },
    {
      "id": 9,
      "bracket_kind": "backbone",
      "pairing_id": "F2/connected",
      "group_id": "$overall",
      "ru_midpoint": [
        7.3610274615716245,
        -0.03188693939055956
      ],
      "bond_midpoint": [
        12.55718046607391,
        -0.031878389148161906
      ],
      "orientation_vector": [
        0.0,
        -1.0
      ],
      "half_bracket_size": 2.9999470747103505,
      "bond": [
        1,
        21
      ],
      "fragment": "F2",
      "backbone": true,
      "suspended_anchor_atom": null,
      "suspended_reason": null,
      "source_label": "F2/connected",
      "marker_id": "connected-overall-right",
      "side": "right",
      "connection_group": "$overall",
      "marker_type_index": null
    },
    {
      "id": 10,
      "bracket_kind": "backbone",
      "pairing_id": "F1/fragments[0]",
      "group_id": "<1:3",
      "ru_midpoint": [
        0.8659641097689907,
        0.018202031299676985
      ],
      "bond_midpoint": [
        -0.4329527145159566,
        -0.03181598591382828
      ],
      "orientation_vector": [
        0.0,
        1.0
      ],
      "half_bracket_size": 0.5001001599500253,
      "bond": [
        0,
        2
      ],
      "fragment": "F1",
      "backbone": true,
      "suspended_anchor_atom": null,
      "suspended_reason": null,
      "source_label": "F1/fragments[0]",
      "marker_id": "0",
      "side": "left",
      "connection_group": "<1",
      "marker_type_index": 3
    },
    {
      "id": 11,
      "bracket_kind": "backbone",
      "pairing_id": "F1/fragments[0]",
      "group_id": ">1:4",
      "ru_midpoint": [
        0.8659641097689907,
        0.018202031299676985
      ],
      "bond_midpoint": [
        2.1649609000804975,
        -0.03189718751466106
      ],
      "orientation_vector": [
        0.0,
        1.0
      ],
      "half_bracket_size": 0.5001001599500253,
      "bond": [
        4,
        5
      ],
      "fragment": "F1",
      "backbone": true,
      "suspended_anchor_atom": null,
      "suspended_reason": null,
      "source_label": "F1/fragments[0]",
      "marker_id": "4",
      "side": "right",
      "connection_group": ">1",
      "marker_type_index": 4
    }
  ]
}
