
     RDKit          2D

  0  0  0  0  0  0  0  0  0  0999 V3000
M  V30 BEGIN CTAB
M  V30 COUNTS 18 18 4 0 0
M  V30 BEGIN ATOM
M  V30 1 H 2.165154 -0.252441 0.000000 0
M  V30 2 H 9.959230 0.247497 0.000000 0
M  V30 3 C 3.031113 0.247566 0.000000 0
M  V30 4 C 3.897072 -0.252441 0.000000 0
M  V30 5 C 3.897072 -1.252443 0.000000 0
M  V30 6 C 3.030871 -1.752377 0.000000 0
M  V30 7 C 3.031071 -2.752378 0.000000 0
M  V30 8 C 3.896872 -3.252448 0.000000 0
M  V30 9 C 4.763074 -2.752514 0.000000 0
M  V30 10 C 4.762874 -1.752513 0.000000 0
M  V30 11 C 4.763134 0.247497 0.000000 0
M  V30 12 C 5.629138 -0.252404 0.000000 0
M  V30 13 C 6.495134 0.247497 0.000000 0
M  V30 14 C 7.361139 -0.252404 0.000000 0
M  V30 15 C 8.227222 0.247497 0.000000 0
M  V30 16 C 9.093226 -0.252404 0.000000 0
M  V30 17 C 9.093226 -1.252428 0.000000 0
M  V30 18 C 8.227074 -1.752272 0.000000 0
M  V30 END ATOM
M  V30 BEGIN BOND
M  V30 1 1 3 4
M  V30 2 1 4 5
M  V30 3 1 5 6
M  V30 4 1 6 7
M  V30 5 1 7 8
M  V30 6 1 8 9
M  V30 7 1 9 10
M  V30 8 1 10 5
M  V30 9 1 1 3
M  V30 10 1 11 12
M  V30 11 1 12 13
M  V30 12 1 13 14
M  V30 13 1 15 16
M  V30 14 1 16 17
M  V30 15 1 17 18
M  V30 16 1 14 15
M  V30 17 1 4 11
M  V30 18 1 2 16
M  V30 END BOND
M  V30 BEGIN SGROUP
M  V30 1 SRU 0 ATOMS=(4 4 11 14 15) CBONDS=(2 16 17) -
M  V30 BRKXYZ=(9 4.3301 0.4974 0 4.3301 -0.5024 0 0 0 0) BRKXYZ=(9 7.7942 0.49-
M  V30 74 0 7.7942 -0.5024 0 0 0 0)
M  V30 2 SRU 0 ATOMS=(4 2 14 15 16) CBONDS=(2 16 18) -
M  V30 BRKXYZ=(9 7.7942 0.4974 0 7.7942 -0.5024 0 0 0 0) BRKXYZ=(9 9.5262 0.49-
M  V30 74 0 9.5262 -0.5024 0 0 0 0)
M  V30 3 SRU 0 ATOMS=(4 2 4 11 16) CBONDS=(2 17 18) -
M  V30 BRKXYZ=(9 4.3301 1.9973 0 4.3301 -2.0022 0 0 0 0) BRKXYZ=(9 9.5262 1.99-
M  V30 73 0 9.5262 -2.0022 0 0 0 0)
M  V30 4 SRU 0 ATOMS=(4 1 3 4 11) CBONDS=(2 9 17) -
M  V30 BRKXYZ=(9 2.5981 0.4976 0 2.5981 -0.5024 0 0 0 0) BRKXYZ=(9 4.3301 0.49-
M  V30 75 0 4.3301 -0.5025 0 0 0 0)
M  V30 END SGROUP
M  V30 END CTAB
M  END
>  <BIGSMILES_BRACKET_RECORDS_JSON>
{
  "records": [
    {
      "id": 0,
      "bracket_kind": "backbone",
      "pairing_id": "F2/fragments[0]",
      "group_id": "$a:2",
      "ru_midpoint": [
        6.062136236579213,
        -0.0024535143104928436
      ],
      "bond_midpoint": [
        4.3301031056286785,
        -0.00247231267699205
      ],
      "orientation_vector": [
        0.0,
        1.0
      ],
      "half_bracket_size": 0.49990016001536275,
      "bond": [
        3,
        10
      ],
      "fragment": "F2",
      "backbone": true,
      "suspended_anchor_atom": null,
      "suspended_reason": null,
      "source_label": "F2/fragments[0]",
      "marker_id": "0",
      "side": "left",
      "connection_group": "$a",
      "marker_type_index": 2
    },
    {
      "id": 1,
      "bracket_kind": "backbone",
      "pairing_id": "F2/fragments[0]",
      "group_id": "$a:2",
      "ru_midpoint": [
        6.062136236579213,
        -0.0024535143104928436
      ],
      "bond_midpoint": [
        7.794180218426392,
        -0.0024535143104926216
      ],
      "orientation_vector": [
        0.0,
        1.0
      ],
      "half_bracket_size": 0.49990016001536275,
      "bond": [
        13,
        14
      ],
      "fragment": "F2",
      "backbone": true,
      "suspended_anchor_atom": null,
      "suspended_reason": null,
      "source_label": "F2/fragments[0]",
      "marker_id": "5",
      "side": "right",
      "connection_group": "$a",
      "marker_type_index": 2
    },
    {
      "id": 2,
      "bracket_kind": "backbone",
      "pairing_id": "F2/fragments[1]",
      "group_id": "$a:2",
      "ru_midpoint": [
        8.660206331764527,
        -0.002453434326505355
      ],
      "bond_midpoint": [
        7.794180218426392,
        -0.0024535143104926216
      ],
      "orientation_vector": [
        0.0,
        1.0
      ],
      "half_bracket_size": 0.49990016001536275,
      "bond": [
        13,
        14
      ],
      "fragment": "F2",
      "backbone": true,
      "suspended_anchor_atom": null,
      "suspended_reason": null,
      "source_label": "F2/fragments[1]",
      "marker_id": "0",
      "side": "left",
      "connection_group": "$a",
      "marker_type_index": 2
    },
    {
      "id": 3,
      "bracket_kind": "backbone",
      "pairing_id": "F2/fragments[1]",
      "group_id": "$a:2",
      "ru_midpoint": [
        8.660206331764527,
        -0.002453434326505355
      ],
      "bond_midpoint": [
        9.526228276484714,
        -0.002453514310492677
      ],
      "orientation_vector": [
        0.0,
        1.0
      ],
      "half_bracket_size": 0.49990016001536275,
      "bond": [
        1,
        15
      ],
      "fragment": "F2",
      "backbone": true,
      "suspended_anchor_atom": null,
      "suspended_reason": null,
      "source_label": "F2/fragments[1]",
      "marker_id": "5",
      "side": "right",
      "connection_group": "$a",
      "marker_type_index": 2
    },
    {
      "id": 4,
      "bracket_kind": "backbone",
      "pairing_id": "F2/connected",
      "group_id": "$overall",
      "ru_midpoint": [
        6.928140595718702,
        -0.0024534343265054104
      ],
      "bond_midpoint": [
        4.3301031056286785,
        -0.00247231267699205
      ],
      "orientation_vector": [
        0.0,
        1.0
      ],
      "half_bracket_size": 1.9997688137103973,
      "bond": [
        3,
        10
      ],
      "fragment": "F2",
      "backbone": true,
      "suspended_anchor_atom": null,
      "suspended_reason": null,
      "source_label": "F2/connected",
      "marker_id": "connected-overall-left",
      "side": "left",
      "connection_group": "$overall",
      "marker_type_index": null
    },
    {
      "id": 5,
      "bracket_kind": "backbone",
      "pairing_id": "F2/connected",
      "group_id": "$overall",
      "ru_midpoint": [
        6.928140595718702,
        -0.0024534343265054104
      ],
      "bond_midpoint": [
        9.526228276484714,
        -0.002453514310492677
      ],
      "orientation_vector": [
        0.0,
        1.0
      ],
      "half_bracket_size": 1.9997688137103973,
      "bond": [
        1,
        15
      ],
      "fragment": "F2",
      "backbone": true,
      "suspended_anchor_atom": null,
      "suspended_reason": null,
      "source_label": "F2/connected",
      "marker_id": "connected-overall-right",
      "side": "right",
      "connection_group": "$overall",
      "marker_type_index": null
    },
    {
      "id": 6,
      "bracket_kind": "backbone",
      "pairing_id": "F1/fragments[0]",
      "group_id": "$a:2",
      "ru_midpoint": [
        3.464098811012936,
        -0.00243816160211463
      ],
      "bond_midpoint": [
        2.598133771413275,
        -0.0024376615965561177
      ],
      "orientation_vector": [
        0.0,
        1.0
      ],
      "half_bracket_size": 0.5000070589092322,
      "bond": [
        0,
        2
      ],
      "fragment": "F1",
      "backbone": true,
      "suspended_anchor_atom": null,
      "suspended_reason": null,
      "source_label": "F1/fragments[0]",
      "marker_id": "0",
      "side": "left",
      "connection_group": "$a",
      "marker_type_index": 2
    },
    {
      "id": 7,
      "bracket_kind": "backbone",
      "pairing_id": "F1/fragments[0]",
      "group_id": "$a:2",
      "ru_midpoint": [
        3.464098811012936,
        -0.00243816160211463
      ],
      "bond_midpoint": [
        4.3301031056286785,
        -0.00247231267699205
      ],
      "orientation_vector": [
        0.0,
        1.0
      ],
      "half_bracket_size": 0.5000070589092322,
      "bond": [
        3,
        10
      ],
      "fragment": "F1",
      "backbone": true,
      "suspended_anchor_atom": null,
      "suspended_reason": null,
      "source_label": "F1/fragments[0]",
      "marker_id": "9",
      "side": "right",
      "connection_group": "$a",
      "marker_type_index": 2
    }
  ]
}
