
     RDKit          2D

  0  0  0  0  0  0  0  0  0  0999 V3000
M  V30 BEGIN CTAB
M  V30 COUNTS 20 21 2 0 0
M  V30 BEGIN ATOM
M  V30 1 H 3.897260 -0.252354 0.000000 0
M  V30 2 H 8.227230 0.247652 0.000000 0
M  V30 3 C 4.763275 0.247749 0.000000 0
M  V30 4 C 5.629290 -0.252354 0.000000 0
M  V30 5 C 5.629290 -1.252380 0.000000 0
M  V30 6 C 6.495452 -1.752230 0.000000 0
M  V30 7 C 6.495452 -2.752256 0.000000 0
M  V30 8 O 7.361441 -3.252206 0.000000 0
M  V30 9 C 5.629463 -3.252331 0.000000 0
M  V30 10 O 5.629636 -4.252257 0.000000 0
M  V30 11 C 4.763301 -2.752482 0.000000 0
M  V30 12 C 4.763301 -1.752456 0.000000 0
M  V30 13 C 6.495312 0.247652 0.000000 0
M  V30 14 C 7.361271 -0.252355 0.000000 0
M  V30 15 C 7.361271 -1.252357 0.000000 0
M  V30 16 C 6.495070 -1.752291 0.000000 0
M  V30 17 C 6.495270 -2.752292 0.000000 0
M  V30 18 C 7.361071 -3.252362 0.000000 0
M  V30 19 C 8.227273 -2.752428 0.000000 0
M  V30 20 C 8.227073 -1.752427 0.000000 0
M  V30 END ATOM
M  V30 BEGIN BOND
M  V30 1 1 3 4
M  V30 2 1 4 5
M  V30 3 2 5 6
M  V30 4 1 6 7
M  V30 5 1 7 8
M  V30 6 2 7 9
M  V30 7 1 9 10
M  V30 8 1 9 11
M  V30 9 2 11 12
M  V30 10 1 12 5
M  V30 11 1 1 3
M  V30 12 1 13 14
M  V30 13 1 14 15
M  V30 14 2 15 16
M  V30 15 1 16 17
M  V30 16 2 17 18
M  V30 17 1 18 19
M  V30 18 2 19 20
M  V30 19 1 20 15
M  V30 20 1 4 13
M  V30 21 1 2 14
M  V30 END BOND
M  V30 BEGIN SGROUP
M  V30 1 SRU 0 ATOMS=(4 2 4 13 14) CBONDS=(2 20 21) -
M  V30 BRKXYZ=(9 6.0623 0.4977 0 6.0623 -0.5024 0 0 0 0) BRKXYZ=(9 7.7943 0.49-
M  V30 77 0 7.7943 -0.5024 0 0 0 0)
M  V30 2 SRU 0 ATOMS=(4 1 3 4 13) CBONDS=(2 11 20) -
M  V30 BRKXYZ=(9 4.3303 0.4978 0 4.3303 -0.5024 0 0 0 0) BRKXYZ=(9 6.0623 0.49-
M  V30 78 0 6.0623 -0.5025 0 0 0 0)
M  V30 END SGROUP
M  V30 END CTAB
M  END
>  <BIGSMILES_BRACKET_RECORDS_JSON>
{
  "records": [
    {
      "id": 0,
      "bracket_kind": "backbone",
      "pairing_id": "F2/fragments[0]",
      "group_id": "$a:2",
      "ru_midpoint": [
        6.928247692007521,
        -0.002373300346367957
      ],
      "bond_midpoint": [
        6.062301313783901,
        -0.002351242248351093
      ],
      "orientation_vector": [
        0.0,
        1.0
      ],
      "half_bracket_size": 0.5000070589092322,
      "bond": [
        3,
        12
      ],
      "fragment": "F2",
      "backbone": true,
      "suspended_anchor_atom": null,
      "suspended_reason": null,
      "source_label": "F2/fragments[0]",
      "marker_id": "0",
      "side": "left",
      "connection_group": "$a",
      "marker_type_index": 2
    },
    {
      "id": 1,
      "bracket_kind": "backbone",
      "pairing_id": "F2/fragments[0]",
      "group_id": "$a:2",
      "ru_midpoint": [
        6.928247692007521,
        -0.002373300346367957
      ],
      "bond_midpoint": [
        7.794250932344028,
        -0.002351742253910105
      ],
      "orientation_vector": [
        0.0,
        1.0
      ],
      "half_bracket_size": 0.5000070589092322,
      "bond": [
        1,
        13
      ],
      "fragment": "F2",
      "backbone": true,
      "suspended_anchor_atom": null,
      "suspended_reason": null,
      "source_label": "F2/fragments[0]",
      "marker_id": "9",
      "side": "right",
      "connection_group": "$a",
      "marker_type_index": 2
    },
    {
      "id": 2,
      "bracket_kind": "backbone",
      "pairing_id": "F1/fragments[0]",
      "group_id": "$a:2",
      "ru_midpoint": [
        5.19619829143025,
        -0.0023091381612746487
      ],
      "bond_midpoint": [
        4.330267332788925,
        -0.002302652074634426
      ],
      "orientation_vector": [
        0.0,
        1.0
      ],
      "half_bracket_size": 0.5001032392455471,
      "bond": [
        0,
        2
      ],
      "fragment": "F1",
      "backbone": true,
      "suspended_anchor_atom": null,
      "suspended_reason": null,
      "source_label": "F1/fragments[0]",
      "marker_id": "0",
      "side": "left",
      "connection_group": "$a",
      "marker_type_index": 2
    },
    {
      "id": 3,
      "bracket_kind": "backbone",
      "pairing_id": "F1/fragments[0]",
      "group_id": "$a:2",
      "ru_midpoint": [
        5.19619829143025,
        -0.0023091381612746487
      ],
      "bond_midpoint": [
        6.062301313783901,
        -0.002351242248351093
      ],
      "orientation_vector": [
        0.0,
        1.0
      ],
      "half_bracket_size": 0.5001032392455471,
      "bond": [
        3,
        12
      ],
      "fragment": "F1",
      "backbone": true,
      "suspended_anchor_atom": null,
      "suspended_reason": null,
      "source_label": "F1/fragments[0]",
      "marker_id": "11",
      "side": "right",
      "connection_group": "$a",
      "marker_type_index": 2
    }
  ]
}
