
     RDKit          2D

  0  0  0  0  0  0  0  0  0  0999 V3000
M  V30 BEGIN CTAB
M  V30 COUNTS 14 14 2 0 0
M  V30 BEGIN ATOM
M  V30 1 H 3.897194 0.247702 0.000000 0
M  V30 2 H 8.227240 0.747708 0.000000 0
M  V30 3 Si 4.763247 0.747718 0.000000 0 VAL=4
M  V30 4 C 4.763247 -0.252207 0.000000 0
M  V30 5 C 4.763247 1.747743 0.000000 0
M  V30 6 O 5.629300 0.247702 0.000000 0
M  V30 7 C 6.495322 0.747708 0.000000 0
M  V30 8 C 7.361281 0.247701 0.000000 0
M  V30 9 C 7.361281 -0.752301 0.000000 0
M  V30 10 C 6.495079 -1.252234 0.000000 0
M  V30 11 C 6.495279 -2.252236 0.000000 0
M  V30 12 C 7.361081 -2.752305 0.000000 0
M  V30 13 C 8.227283 -2.252372 0.000000 0
M  V30 14 C 8.227083 -1.252370 0.000000 0
M  V30 END ATOM
M  V30 BEGIN BOND
M  V30 1 1 3 4
M  V30 2 1 3 5
M  V30 3 1 3 6
M  V30 4 1 1 3
M  V30 5 1 7 8
M  V30 6 1 8 9
M  V30 7 1 9 10
M  V30 8 1 10 11
M  V30 9 1 11 12
M  V30 10 1 12 13
M  V30 11 1 13 14
M  V30 12 1 14 9
M  V30 13 1 6 7
M  V30 14 1 2 8
M  V30 END BOND
M  V30 BEGIN SGROUP
M  V30 1 SRU 0 ATOMS=(4 2 6 7 8) CBONDS=(2 13 14) -
M  V30 BRKXYZ=(9 6.0623 0.9977 0 6.0623 -0.0023 0 0 0 0) BRKXYZ=(9 7.7943 0.99-
M  V30 77 0 7.7943 -0.0023 0 0 0 0)
M  V30 2 SRU 0 ATOMS=(4 1 3 6 7) CBONDS=(2 4 13) -
M  V30 BRKXYZ=(9 4.3302 -0.0023 0 4.3302 0.9977 0 0 0 0) BRKXYZ=(9 6.0623 -0.0-
M  V30 023 0 6.0623 0.9977 0 0 0 0)
M  V30 END SGROUP
M  V30 END CTAB
M  END
>  <BIGSMILES_BRACKET_RECORDS_JSON>
{
  "records": [
    {
      "id": 0,
      "bracket_kind": "backbone",
      "pairing_id": "F2/fragments[0]",
      "group_id": "$a:2",
      "ru_midpoint": [
        6.92825749867395,
        0.4976829319240339
      ],
      "bond_midpoint": [
        6.062311120450329,
        0.49770499002205076
      ],
      "orientation_vector": [
        0.0,
        1.0
      ],
      "half_bracket_size": 0.5000070589092322,
      "bond": [
        5,
        6
      ],
      "fragment": "F2",
      "backbone": true,
      "suspended_anchor_atom": null,
      "suspended_reason": null,
      "source_label": "F2/fragments[0]",
      "marker_id": "0",
      "side": "left",
      "connection_group": "$a",
      "marker_type_index": 2
    },
    {
      "id": 1,
      "bracket_kind": "backbone",
      "pairing_id": "F2/fragments[0]",
      "group_id": "$a:2",
      "ru_midpoint": [
        6.92825749867395,
        0.4976829319240339
      ],
      "bond_midpoint": [
        7.794260739010456,
        0.49770449001649175
      ],
      "orientation_vector": [
        0.0,
        1.0
      ],
      "half_bracket_size": 0.5000070589092322,
      "bond": [
        1,
        7
      ],
      "fragment": "F2",
      "backbone": true,
      "suspended_anchor_atom": null,
      "suspended_reason": null,
      "source_label": "F2/fragments[0]",
      "marker_id": "9",
      "side": "right",
      "connection_group": "$a",
      "marker_type_index": 2
    },
    {
      "id": 2,
      "bracket_kind": "backbone",
      "pairing_id": "F1/fragments[0]",
      "group_id": "$a:2",
      "ru_midpoint": [
        5.196257634545663,
        0.4977019605729937
      ],
      "bond_midpoint": [
        4.330220493394514,
        0.49770996044499793
      ],
      "orientation_vector": [
        0.0,
        -1.0
      ],
      "half_bracket_size": 0.5000159997440081,
      "bond": [
        0,
        2
      ],
      "fragment": "F1",
      "backbone": true,
      "suspended_anchor_atom": null,
      "suspended_reason": null,
      "source_label": "F1/fragments[0]",
      "marker_id": "0",
      "side": "left",
      "connection_group": "$a",
      "marker_type_index": 2
    },
    {
      "id": 3,
      "bracket_kind": "backbone",
      "pairing_id": "F1/fragments[0]",
      "group_id": "$a:2",
      "ru_midpoint": [
        5.196257634545663,
        0.4977019605729937
      ],
      "bond_midpoint": [
        6.062311120450329,
        0.49770499002205076
      ],
      "orientation_vector": [
        0.0,
        -1.0
      ],
      "half_bracket_size": 0.5000159997440081,
      "bond": [
        5,
        6
      ],
      "fragment": "F1",
      "backbone": true,
      "suspended_anchor_atom": null,
      "suspended_reason": null,
      "source_label": "F1/fragments[0]",
      "marker_id": "5",
      "side": "right",
      "connection_group": "$a",
      "marker_type_index": 2
    }
  ]
}
