
     RDKit          2D

  0  0  0  0  0  0  0  0  0  0999 V3000
M  V30 BEGIN CTAB
M  V30 COUNTS 16 15 2 0 0
M  V30 BEGIN ATOM
M  V30 1 H 2.164838 -0.252489 0.000000 0
M  V30 2 H 9.959309 0.247458 0.000000 0
M  V30 3 O 3.030997 0.247409 0.000000 0
M  V30 4 C 3.897155 -0.252489 0.000000 0
M  V30 5 C 3.897155 -1.252485 0.000000 0
M  V30 6 C 4.763126 0.247409 0.000000 0
M  V30 7 C 5.629226 -0.252489 0.000000 0
M  V30 8 O 5.629259 -1.252485 0.000000 0
M  V30 9 O 6.495282 0.247458 0.000000 0
M  V30 10 C 7.361356 -0.252462 0.000000 0
M  V30 11 C 7.361356 -1.252549 0.000000 0
M  V30 12 C 6.495502 -1.752737 0.000000 0
M  V30 13 C 6.495775 -2.752751 0.000000 0
M  V30 14 C 8.227365 0.247458 0.000000 0
M  V30 15 C 9.093337 -0.252462 0.000000 0
M  V30 16 O 9.093328 -1.252464 0.000000 0
M  V30 END ATOM
M  V30 BEGIN BOND
M  V30 1 1 3 4
M  V30 2 1 4 5
M  V30 3 1 4 6
M  V30 4 1 6 7
M  V30 5 2 7 8
M  V30 6 1 1 3
M  V30 7 1 9 10
M  V30 8 1 10 11
M  V30 9 1 11 12
M  V30 10 1 12 13
M  V30 11 1 10 14
M  V30 12 1 14 15
M  V30 13 2 15 16
M  V30 14 1 7 9
M  V30 15 1 2 15
M  V30 END BOND
M  V30 BEGIN SGROUP
M  V30 1 SRU 0 ATOMS=(4 2 7 9 15) CBONDS=(2 14 15) -
M  V30 BRKXYZ=(9 6.0623 0.4974 0 6.0623 -0.5024 0 0 0 0) BRKXYZ=(9 9.5263 0.49-
M  V30 74 0 9.5263 -0.5024 0 0 0 0)
M  V30 2 SRU 0 ATOMS=(4 1 3 7 9) CBONDS=(2 6 14) -
M  V30 BRKXYZ=(9 2.5979 0.4974 0 2.5979 -0.5024 0 0 0 0) BRKXYZ=(9 6.0623 0.49-
M  V30 74 0 6.0623 -0.5024 0 0 0 0)
M  V30 END SGROUP
M  V30 END CTAB
M  END
>  <BIGSMILES_BRACKET_RECORDS_JSON>
{
  "records": [
    {
      "id": 0,
      "bracket_kind": "backbone",
      "pairing_id": "F2/fragments[0]",
      "group_id": "<1:3",
      "ru_midpoint": [
        7.794284599873369,
        -0.0025154745463322747
      ],
      "bond_midpoint": [
        6.0622542855458255,
        -0.0025154745463327466
      ],
      "orientation_vector": [
        0.0,
        1.0
      ],
      "half_bracket_size": 0.4999205626331813,
      "bond": [
        6,
        8
      ],
      "fragment": "F2",
      "backbone": true,
      "suspended_anchor_atom": null,
      "suspended_reason": null,
      "source_label": "F2/fragments[0]",
      "marker_id": "0",
      "side": "left",
      "connection_group": "<1",
      "marker_type_index": 3
    },
    {
      "id": 1,
      "bracket_kind": "backbone",
      "pairing_id": "F2/fragments[0]",
      "group_id": ">1:4",
      "ru_midpoint": [
        7.794284599873369,
        -0.0025154745463322747
      ],
      "bond_midpoint": [
        9.526322800981989,
        -0.0025020055978051126
      ],
      "orientation_vector": [
        0.0,
        1.0
      ],
      "half_bracket_size": 0.4999205626331813,
      "bond": [
        1,
        14
      ],
      "fragment": "F2",
      "backbone": true,
      "suspended_anchor_atom": null,
      "suspended_reason": null,
      "source_label": "F2/fragments[0]",
      "marker_id": "9",
      "side": "right",
      "connection_group": ">1",
      "marker_type_index": 4
    },
    {
      "id": 2,
      "bracket_kind": "backbone",
      "pairing_id": "F1/fragments[0]",
      "group_id": "<1:3",
      "ru_midpoint": [
        4.330074785406668,
        -0.0024905655619879286
      ],
      "bond_midpoint": [
        2.5979175593437844,
        -0.002540065197000174
      ],
      "orientation_vector": [
        0.0,
        1.0
      ],
      "half_bracket_size": 0.49989831922890127,
      "bond": [
        0,
        2
      ],
      "fragment": "F1",
      "backbone": true,
      "suspended_anchor_atom": null,
      "suspended_reason": null,
      "source_label": "F1/fragments[0]",
      "marker_id": "0",
      "side": "left",
      "connection_group": "<1",
      "marker_type_index": 3
    },
    {
      "id": 3,
      "bracket_kind": "backbone",
      "pairing_id": "F1/fragments[0]",
      "group_id": ">1:4",
      "ru_midpoint": [
        4.330074785406668,
        -0.0024905655619879286
      ],
      "bond_midpoint": [
        6.0622542855458255,
        -0.0025154745463327466
      ],
      "orientation_vector": [
        0.0,
        1.0
      ],
      "half_bracket_size": 0.49989831922890127,
      "bond": [
        6,
        8
      ],
      "fragment": "F1",
      "backbone": true,
      "suspended_anchor_atom": null,
      "suspended_reason": null,
      "source_label": "F1/fragments[0]",
      "marker_id": "7",
      "side": "right",
      "connection_group": ">1",
      "marker_type_index": 4
    }
  ]
}
