
     RDKit          2D

  0  0  0  0  0  0  0  0  0  0999 V3000
M  V30 BEGIN CTAB
M  V30 COUNTS 32 32 3 0 0
M  V30 BEGIN ATOM
M  V30 1 H -8.536963 -0.339468 0.000000 0
M  V30 2 O 2.721250 -0.839570 0.000000 0
M  V30 3 C 3.587196 -0.339570 0.000000 0
M  V30 4 C 4.587196 -0.339570 0.000000 0
M  V30 5 C 5.087220 0.526497 0.000000 0
M  V30 6 C 6.087268 0.526497 0.000000 0
M  V30 7 C 6.587292 -0.339570 0.000000 0
M  V30 8 C 6.087268 -1.205637 0.000000 0
M  V30 9 C 5.087220 -1.205637 0.000000 0
M  V30 10 O -7.670953 -0.839496 0.000000 0
M  V30 11 C -6.804912 -0.339495 0.000000 0
M  V30 12 C -5.938835 -0.839496 0.000000 0
M  V30 13 C -5.072793 -0.339495 0.000000 0
M  V30 14 C -4.206631 -0.839496 0.000000 0
M  V30 15 C -3.340705 -0.339495 0.000000 0
M  V30 16 O -3.340715 0.660507 0.000000 0
M  V30 17 C -4.206631 -1.839498 0.000000 0
M  V30 18 S -3.706530 -2.705502 0.000000 0
M  V30 19 C -4.206631 -3.571498 0.000000 0
M  V30 20 H -3.706555 -6.169452 0.000000 0
M  V30 21 C -3.706543 -4.437473 0.000000 0
M  V30 22 O -4.206643 -5.303477 0.000000 0
M  V30 23 C -2.474731 -0.839582 0.000000 0
M  V30 24 O -2.474733 -1.839583 0.000000 0
M  V30 25 C -1.608726 -0.339482 0.000000 0
M  V30 26 C -1.608726 0.660518 0.000000 0
M  V30 27 O -0.742730 -0.839582 0.000000 0
M  V30 28 C 0.123274 -0.339482 0.000000 0
M  V30 29 O 0.123277 0.660518 0.000000 0
M  V30 30 C 0.989270 -0.839582 0.000000 0
M  V30 31 C 0.989270 0.160418 0.000000 0
M  V30 32 O 1.855275 -0.339482 0.000000 0
M  V30 END ATOM
M  V30 BEGIN BOND
M  V30 1 1 2 3
M  V30 2 1 3 4
M  V30 3 2 4 5
M  V30 4 1 5 6
M  V30 5 2 6 7
M  V30 6 1 7 8
M  V30 7 2 8 9
M  V30 8 1 9 4
M  V30 9 1 10 11
M  V30 10 1 11 12
M  V30 11 1 12 13
M  V30 12 1 13 14
M  V30 13 1 14 15
M  V30 14 2 15 16
M  V30 15 1 17 18
M  V30 16 1 18 19
M  V30 17 1 21 22
M  V30 18 1 19 21
M  V30 19 1 20 22
M  V30 20 1 14 17
M  V30 21 1 1 10
M  V30 22 2 23 24
M  V30 23 1 23 25
M  V30 24 1 25 26
M  V30 25 1 25 27
M  V30 26 1 27 28
M  V30 27 2 28 29
M  V30 28 1 28 30
M  V30 29 1 30 31
M  V30 30 1 30 32
M  V30 31 1 15 23
M  V30 32 1 2 32
M  V30 END BOND
M  V30 BEGIN SGROUP
M  V30 1 SRU 0 ATOMS=(4 19 20 21 22) CBONDS=(2 18 19) -
M  V30 BRKXYZ=(9 -3.4565 -4.0045 0 -4.4567 -4.0045 0 0 0 0) BRKXYZ=(9 -3.4565 -
M  V30 -5.7365 0 -4.4567 -5.7365 0 0 0 0)
M  V30 2 SRU 0 ATOMS=(4 2 15 23 32) CBONDS=(2 31 32) -
M  V30 BRKXYZ=(9 -2.9077 -1.0896 0 -2.9077 -0.0894 0 0 0 0) BRKXYZ=(9 2.2883 --
M  V30 1.0896 0 2.2883 -0.0894 0 0 0 0)
M  V30 3 SRU 0 ATOMS=(4 1 10 15 23) CBONDS=(2 21 31) -
M  V30 BRKXYZ=(9 -8.1040 -0.0895 0 -8.1040 -1.0895 0 0 0 0) BRKXYZ=(9 -2.9077 -
M  V30 -0.0895 0 -2.9077 -1.0895 0 0 0 0)
M  V30 END SGROUP
M  V30 END CTAB
M  END
>  <BIGSMILES_BRACKET_RECORDS_JSON>
{
  "records": [
    {
      "id": 0,
      "bracket_kind": "backbone",
      "pairing_id": "F4/fragments[0]",
      "group_id": "<1:3",
      "ru_midpoint": [
        -3.956592837513782,
        -4.870475139116955
      ],
      "bond_midpoint": [
        -3.9565866715068894,
        -4.0044855335433525
      ],
      "orientation_vector": [
        1.0,
        0.0
      ],
      "half_bracket_size": 0.5001001599500253,
      "bond": [
        18,
        20
      ],
      "fragment": "F4",
      "backbone": true,
      "suspended_anchor_atom": null,
      "suspended_reason": null,
      "source_label": "F4/fragments[0]",
      "marker_id": "0",
      "side": "left",
      "connection_group": "<1",
      "marker_type_index": 3
    },
    {
      "id": 1,
      "bracket_kind": "backbone",
      "pairing_id": "F4/fragments[0]",
      "group_id": ">1:4",
      "ru_midpoint": [
        -3.956592837513782,
        -4.870475139116955
      ],
      "bond_midpoint": [
        -3.956599003520675,
        -5.736464744690558
      ],
      "orientation_vector": [
        1.0,
        0.0
      ],
      "half_bracket_size": 0.5001001599500253,
      "bond": [
        19,
        21
      ],
      "fragment": "F4",
      "backbone": true,
      "suspended_anchor_atom": null,
      "suspended_reason": null,
      "source_label": "F4/fragments[0]",
      "marker_id": "3",
      "side": "right",
      "connection_group": ">1",
      "marker_type_index": 4
    },
    {
      "id": 2,
      "bracket_kind": "backbone",
      "pairing_id": "F2/fragments[0]",
      "group_id": "<1:3",
      "ru_midpoint": [
        -0.3097278056459807,
        -0.5895323720475171
      ],
      "bond_midpoint": [
        -2.9077179770393506,
        -0.589538538054409
      ],
      "orientation_vector": [
        0.0,
        -1.0
      ],
      "half_bracket_size": 0.500100159950026,
      "bond": [
        14,
        22
      ],
      "fragment": "F2",
      "backbone": true,
      "suspended_anchor_atom": null,
      "suspended_reason": null,
      "source_label": "F2/fragments[0]",
      "marker_id": "0",
      "side": "left",
      "connection_group": "<1",
      "marker_type_index": 3
    },
    {
      "id": 3,
      "bracket_kind": "backbone",
      "pairing_id": "F2/fragments[0]",
      "group_id": ">1:4",
      "ru_midpoint": [
        -0.3097278056459807,
        -0.5895323720475171
      ],
      "bond_midpoint": [
        2.288262365747391,
        -0.5895262060406248
      ],
      "orientation_vector": [
        0.0,
        -1.0
      ],
      "half_bracket_size": 0.500100159950026,
      "bond": [
        1,
        31
      ],
      "fragment": "F2",
      "backbone": true,
      "suspended_anchor_atom": null,
      "suspended_reason": null,
      "source_label": "F2/fragments[0]",
      "marker_id": "11",
      "side": "right",
      "connection_group": ">1",
      "marker_type_index": 4
    },
    {
      "id": 4,
      "bracket_kind": "backbone",
      "pairing_id": "F1/subMolblock",
      "group_id": "<1:3",
      "ru_midpoint": [
        -5.505811032127113,
        -0.5894951233150822
      ],
      "bond_midpoint": [
        -8.103958021646473,
        -0.5894816521994379
      ],
      "orientation_vector": [
        0.0,
        1.0
      ],
      "half_bracket_size": 0.5000009984575862,
      "bond": [
        0,
        9
      ],
      "fragment": "F1",
      "backbone": true,
      "suspended_anchor_atom": null,
      "suspended_reason": null,
      "source_label": "F1/subMolblock",
      "marker_id": "0",
      "side": "left",
      "connection_group": "<1",
      "marker_type_index": 3
    },
    {
      "id": 5,
      "bracket_kind": "backbone",
      "pairing_id": "F1/subMolblock",
      "group_id": ">1:4",
      "ru_midpoint": [
        -5.505811032127113,
        -0.5894951233150822
      ],
      "bond_midpoint": [
        -2.9077179770393506,
        -0.589538538054409
      ],
      "orientation_vector": [
        0.0,
        1.0
      ],
      "half_bracket_size": 0.5000009984575862,
      "bond": [
        14,
        22
      ],
      "fragment": "F1",
      "backbone": true,
      "suspended_anchor_atom": null,
      "suspended_reason": null,
      "source_label": "F1/subMolblock",
      "marker_id": "9",
      "side": "right",
      "connection_group": ">1",
      "marker_type_index": 4
    }
  ]
}
