
     RDKit          2D

  0  0  0  0  0  0  0  0  0  0999 V3000
M  V30 BEGIN CTAB
M  V30 COUNTS 42 43 2 0 0
M  V30 BEGIN ATOM
M  V30 1 C 2.350949 0.977343 0.000000 0
M  V30 2 C 3.216940 0.477280 0.000000 0
M  V30 3 C 3.216940 -0.522734 0.000000 0
M  V30 4 C 2.350776 -1.022585 0.000000 0
M  V30 5 C 6.082899 -0.022727 0.000000 0
M  V30 6 C 6.948991 0.477163 0.000000 0
M  V30 7 C 6.948991 1.477163 0.000000 0
M  V30 8 O 6.082948 1.977136 0.000000 0
M  V30 9 C 5.217007 1.477163 0.000000 0
M  V30 10 C 4.350963 1.977136 0.000000 0
M  V30 11 O 3.484906 1.477163 0.000000 0
M  V30 12 C 2.618863 1.977136 0.000000 0
M  V30 13 C 1.618863 1.977136 0.000000 0
M  V30 14 C 1.118869 2.843150 0.000000 0
M  V30 15 C 0.118882 2.843150 0.000000 0
M  V30 16 C -0.381112 1.977136 0.000000 0
M  V30 17 C -1.381112 1.977136 0.000000 0
M  V30 18 C -2.247139 1.477135 0.000000 0
M  V30 19 C 0.118882 1.111121 0.000000 0
M  V30 20 C 1.118869 1.111121 0.000000 0
M  V30 21 C 9.547319 1.977137 0.000000 0
M  V30 22 C 10.413298 1.477164 0.000000 0
M  V30 23 O 10.413298 2.477164 0.000000 0
M  V30 24 C 9.547296 2.977097 0.000000 0
M  V30 25 O 11.279355 1.977137 0.000000 0
M  V30 26 C 12.145449 1.477164 0.000000 0
M  V30 27 C 13.011506 1.977137 0.000000 0
M  V30 28 Cl 13.877485 1.477164 0.000000 0
M  V30 29 C 4.216940 -0.522734 0.000000 0
M  V30 30 C 5.082899 -0.022727 0.000000 0
M  V30 31 C 5.082899 0.977275 0.000000 0
M  V30 32 C 4.216698 1.477208 0.000000 0
M  V30 33 C 4.216898 2.477210 0.000000 0
M  V30 34 C 5.082699 2.977279 0.000000 0
M  V30 35 C 5.948901 2.477346 0.000000 0
M  V30 36 C 5.948701 1.477344 0.000000 0
M  V30 37 C 7.815031 1.977137 0.000000 0
M  V30 38 C 8.681207 1.477287 0.000000 0
M  V30 39 O 8.681207 0.477585 0.000000 0
M  V30 40 C 7.815394 -0.022547 0.000000 0
M  V30 41 C 7.815295 -1.022422 0.000000 0
M  V30 42 Cl 6.949382 -1.522728 0.000000 0
M  V30 END ATOM
M  V30 BEGIN BOND
M  V30 1 1 1 2
M  V30 2 1 2 3
M  V30 3 1 3 4
M  V30 4 1 5 6
M  V30 5 1 6 7
M  V30 6 1 7 8
M  V30 7 1 8 9
M  V30 8 1 9 10
M  V30 9 1 10 11
M  V30 10 1 11 12
M  V30 11 1 12 13
M  V30 12 2 13 14
M  V30 13 1 14 15
M  V30 14 2 15 16
M  V30 15 1 16 17
M  V30 16 2 17 18
M  V30 17 1 16 19
M  V30 18 2 19 20
M  V30 19 1 21 22
M  V30 20 1 22 23
M  V30 21 1 23 24
M  V30 22 1 22 25
M  V30 23 1 25 26
M  V30 24 1 26 27
M  V30 25 1 27 28
M  V30 26 1 20 13
M  V30 27 1 29 30
M  V30 28 1 30 31
M  V30 29 2 31 32
M  V30 30 1 32 33
M  V30 31 2 33 34
M  V30 32 1 34 35
M  V30 33 2 35 36
M  V30 34 1 36 31
M  V30 35 1 3 29
M  V30 36 1 5 30
M  V30 37 1 37 38
M  V30 38 1 38 39
M  V30 39 1 39 40
M  V30 40 1 40 41
M  V30 41 1 41 42
M  V30 42 1 7 37
M  V30 43 1 21 38
M  V30 END BOND
M  V30 BEGIN SGROUP
M  V30 1 SRU 0 ATOMS=(4 7 21 37 38) CBONDS=(2 42 43) -
M  V30 BRKXYZ=(9 7.3820 2.2270 0 7.3820 1.2273 0 0 0 0) BRKXYZ=(9 9.1143 2.227-
M  V30 1 0 9.1143 1.2274 0 0 0 0)
M  V30 2 SRU 0 ATOMS=(4 3 5 29 30) CBONDS=(2 35 36) -
M  V30 BRKXYZ=(9 3.7169 -1.0227 0 3.7169 -0.0227 0 0 0 0) BRKXYZ=(9 5.5829 -0.-
M  V30 5227 0 5.5829 0.4773 0 0 0 0)
M  V30 END SGROUP
M  V30 END CTAB
M  END
>  <BIGSMILES_BRACKET_RECORDS_JSON>
{
  "records": [
    {
      "id": 0,
      "bracket_kind": "backbone",
      "pairing_id": "F2/fragments[0]",
      "group_id": "$a:2",
      "ru_midpoint": [
        8.248190974295152,
        1.7272119460853852
      ],
      "bond_midpoint": [
        7.382011307503997,
        1.7271498265664453
      ],
      "orientation_vector": [
        0.0,
        1.0
      ],
      "half_bracket_size": 0.49985000931614876,
      "bond": [
        6,
        36
      ],
      "fragment": "F2",
      "backbone": true,
      "suspended_anchor_atom": null,
      "suspended_reason": null,
      "source_label": "F2/fragments[0]",
      "marker_id": "0",
      "side": "left",
      "connection_group": "$a",
      "marker_type_index": 2
    },
    {
      "id": 1,
      "bracket_kind": "backbone",
      "pairing_id": "F2/fragments[0]",
      "group_id": "$a:2",
      "ru_midpoint": [
        8.248190974295152,
        1.7272119460853852
      ],
      "bond_midpoint": [
        9.114262900956529,
        1.727211866109422
      ],
      "orientation_vector": [
        0.0,
        1.0
      ],
      "half_bracket_size": 0.49985000931614876,
      "bond": [
        20,
        37
      ],
      "fragment": "F2",
      "backbone": true,
      "suspended_anchor_atom": null,
      "suspended_reason": null,
      "source_label": "F2/fragments[0]",
      "marker_id": "7",
      "side": "right",
      "connection_group": "$a",
      "marker_type_index": 2
    },
    {
      "id": 2,
      "bracket_kind": "backbone",
      "pairing_id": "F1/fragments[0]",
      "group_id": "$a:2",
      "ru_midpoint": [
        4.649894417420676,
        -0.2727307686690412
      ],
      "bond_midpoint": [
        3.716940330645876,
        -0.5227342981236569
      ],
      "orientation_vector": [
        0.0,
        -1.0
      ],
      "half_bracket_size": 0.5000070589092322,
      "bond": [
        2,
        28
      ],
      "fragment": "F1",
      "backbone": true,
      "suspended_anchor_atom": null,
      "suspended_reason": null,
      "source_label": "F1/fragments[0]",
      "marker_id": "0",
      "side": "left",
      "connection_group": "$a",
      "marker_type_index": 2
    },
    {
      "id": 3,
      "bracket_kind": "backbone",
      "pairing_id": "F1/fragments[0]",
      "group_id": "$a:2",
      "ru_midpoint": [
        4.649894417420676,
        -0.2727307686690412
      ],
      "bond_midpoint": [
        5.582899441136054,
        -0.0227272392144251
      ],
      "orientation_vector": [
        0.0,
        -1.0
      ],
      "half_bracket_size": 0.5000070589092322,
      "bond": [
        4,
        29
      ],
      "fragment": "F1",
      "backbone": true,
      "suspended_anchor_atom": null,
      "suspended_reason": null,
      "source_label": "F1/fragments[0]",
      "marker_id": "9",
      "side": "right",
      "connection_group": "$a",
      "marker_type_index": 2
    }
  ]
}
