
     RDKit          2D

  0  0  0  0  0  0  0  0  0  0999 V3000
M  V30 BEGIN CTAB
M  V30 COUNTS 4 3 1 0 0
M  V30 BEGIN ATOM
M  V30 1 H -1.299206 -0.448650 0.000000 0
M  V30 2 H 1.298807 0.051450 0.000000 0
M  V30 3 C -0.433202 0.051450 0.000000 0
M  V30 4 O 0.432803 -0.448650 0.000000 0
M  V30 END ATOM
M  V30 BEGIN BOND
M  V30 1 1 3 4
M  V30 2 1 1 3
M  V30 3 1 2 4
M  V30 END BOND
M  V30 BEGIN SGROUP
M  V30 1 SRU 0 ATOMS=(4 1 2 3 4) CBONDS=(2 2 3) -
M  V30 BRKXYZ=(9 -0.8662 0.3015 0 -0.8662 -0.6987 0 0 0 0) BRKXYZ=(9 0.8658 0.-
M  V30 3015 0 0.8658 -0.6987 0 0 0 0)
M  V30 END SGROUP
M  V30 END CTAB
M  END
>  <BIGSMILES_BRACKET_RECORDS_JSON>
{
  "records": [
    {
      "id": 0,
      "bracket_kind": "backbone",
      "pairing_id": "F1/fragments[0]",
      "group_id": "<1:3",
      "ru_midpoint": [
        -0.00019943418023071757,
        -0.1986000000000001
      ],
      "bond_midpoint": [
        -0.8662039549640201,
        -0.19860000000000005
      ],
      "orientation_vector": [
        0.0,
        1.0
      ],
      "half_bracket_size": 0.5001001599500253,
      "bond": [
        0,
        2
      ],
      "fragment": "F1",
      "backbone": true,
      "suspended_anchor_atom": null,
      "suspended_reason": null,
      "source_label": "F1/fragments[0]",
      "marker_id": "0",
      "side": "left",
      "connection_group": "<1",
      "marker_type_index": 3
    },
    {
      "id": 1,
      "bracket_kind": "backbone",
      "pairing_id": "F1/fragments[0]",
      "group_id": ">1:4",
      "ru_midpoint": [
        -0.00019943418023071757,
        -0.1986000000000001
      ],
      "bond_midpoint": [
        0.8658050866035583,
        -0.19860000000000005
      ],
      "orientation_vector": [
        0.0,
        1.0
      ],
      "half_bracket_size": 0.5001001599500253,
      "bond": [
        1,
        3
      ],
      "fragment": "F1",
      "backbone": true,
      "suspended_anchor_atom": null,
      "suspended_reason": null,
      "source_label": "F1/fragments[0]",
      "marker_id": "3",
      "side": "right",
      "connection_group": ">1",
      "marker_type_index": 4
    }
  ]
}
