
     RDKit          2D

  0  0  0  0  0  0  0  0  0  0999 V3000
M  V30 BEGIN CTAB
M  V30 COUNTS 6 5 1 0 0
M  V30 BEGIN ATOM
M  V30 1 H -2.165181 0.051386 0.000000 0
M  V30 2 H 2.164826 -0.448586 0.000000 0
M  V30 3 C -1.299132 -0.448586 0.000000 0
M  V30 4 C -0.433083 0.051386 0.000000 0
M  V30 5 C 0.432873 -0.448586 0.000000 0
M  V30 6 C 1.298849 0.051386 0.000000 0
M  V30 END ATOM
M  V30 BEGIN BOND
M  V30 1 1 3 4
M  V30 2 2 4 5
M  V30 3 1 5 6
M  V30 4 1 1 3
M  V30 5 1 2 6
M  V30 END BOND
M  V30 BEGIN SGROUP
M  V30 1 SRU 0 ATOMS=(4 1 2 3 6) CBONDS=(2 4 5) -
M  V30 BRKXYZ=(9 -1.7322 0.3014 0 -1.7322 -0.6986 0 0 0 0) BRKXYZ=(9 1.7318 0.-
M  V30 3014 0 1.7318 -0.6986 0 0 0 0)
M  V30 END SGROUP
M  V30 END CTAB
M  END
>  <BIGSMILES_BRACKET_RECORDS_JSON>
{
  "records": [
    {
      "id": 0,
      "bracket_kind": "backbone",
      "pairing_id": "F1/fragments[0]",
      "group_id": "$a:2",
      "ru_midpoint": [
        -0.00017040809658452893,
        -0.1985748445810479
      ],
      "bond_midpoint": [
        -1.7321565116290083,
        -0.19859999999999955
      ],
      "orientation_vector": [
        0.0,
        1.0
      ],
      "half_bracket_size": 0.4999717690767955,
      "bond": [
        0,
        2
      ],
      "fragment": "F1",
      "backbone": true,
      "suspended_anchor_atom": null,
      "suspended_reason": null,
      "source_label": "F1/fragments[0]",
      "marker_id": "0",
      "side": "left",
      "connection_group": "$a",
      "marker_type_index": 2
    },
    {
      "id": 1,
      "bracket_kind": "backbone",
      "pairing_id": "F1/fragments[0]",
      "group_id": "$a:2",
      "ru_midpoint": [
        -0.00017040809658452893,
        -0.1985748445810479
      ],
      "bond_midpoint": [
        1.7318374918727608,
        -0.1985999999999999
      ],
      "orientation_vector": [
        0.0,
        1.0
      ],
      "half_bracket_size": 0.4999717690767955,
      "bond": [
        1,
        5
      ],
      "fragment": "F1",
      "backbone": true,
      "suspended_anchor_atom": null,
      "suspended_reason": null,
      "source_label": "F1/fragments[0]",
      "marker_id": "5",
      "side": "right",
      "connection_group": "$a",
      "marker_type_index": 2
    }
  ]
}
