
     RDKit          2D

  0  0  0  0  0  0  0  0  0  0999 V3000
M  V30 BEGIN CTAB
M  V30 COUNTS 12 11 3 0 0
M  V30 BEGIN ATOM
M  V30 1 H -3.031057 -0.448650 0.000000 0
M  V30 2 H 3.030675 0.051366 0.000000 0
M  V30 3 C -2.165061 0.051450 0.000000 0
M  V30 4 C -1.299065 -0.448650 0.000000 0
M  V30 5 O -1.299065 -1.448682 0.000000 0
M  V30 6 C -2.165211 -1.948522 0.000000 0
M  V30 7 O -0.433097 0.051450 0.000000 0
M  V30 8 C 0.432871 -0.448650 0.000000 0
M  V30 9 O 0.432871 -1.448582 0.000000 0
M  V30 10 C 1.298757 -1.948672 0.000000 0
M  V30 11 C 1.298800 0.051366 0.000000 0
M  V30 12 O 2.164737 -0.448650 0.000000 0
M  V30 END ATOM
M  V30 BEGIN BOND
M  V30 1 1 3 4
M  V30 2 1 4 5
M  V30 3 1 5 6
M  V30 4 1 4 7
M  V30 5 1 8 9
M  V30 6 1 9 10
M  V30 7 1 8 11
M  V30 8 1 11 12
M  V30 9 1 7 8
M  V30 10 1 1 3
M  V30 11 1 2 12
M  V30 END BOND
M  V30 BEGIN SGROUP
M  V30 1 SRU 0 ATOMS=(4 1 3 7 8) CBONDS=(2 9 10) -
M  V30 BRKXYZ=(9 -2.5981 0.3015 0 -2.5981 -0.6987 0 0 0 0) BRKXYZ=(9 -0.0001 0-
M  V30 .3015 0 -0.0001 -0.6987 0 0 0 0)
M  V30 2 SRU 0 ATOMS=(4 2 7 8 12) CBONDS=(2 9 11) -
M  V30 BRKXYZ=(9 -0.0001 0.3015 0 -0.0001 -0.6987 0 0 0 0) BRKXYZ=(9 2.5977 0.-
M  V30 3015 0 2.5977 -0.6987 0 0 0 0)
M  V30 3 SRU 0 ATOMS=(4 1 2 3 12) CBONDS=(2 10 11) -
M  V30 BRKXYZ=(9 -2.5981 1.8015 0 -2.5981 -2.1987 0 0 0 0) BRKXYZ=(9 2.5977 1.-
M  V30 8015 0 2.5977 -2.1988 0 0 0 0)
M  V30 END SGROUP
M  V30 END CTAB
M  END
>  <BIGSMILES_BRACKET_RECORDS_JSON>
{
  "records": [
    {
      "id": 0,
      "bracket_kind": "backbone",
      "pairing_id": "F1/fragments[0]",
      "group_id": "<1:3",
      "ru_midpoint": [
        -1.299108962655769,
        -0.24861801721350543
      ],
      "bond_midpoint": [
        -2.5980590415040608,
        -0.19860000000000017
      ],
      "orientation_vector": [
        0.0,
        1.0
      ],
      "half_bracket_size": 0.5001001599500254,
      "bond": [
        0,
        2
      ],
      "fragment": "F1",
      "backbone": true,
      "suspended_anchor_atom": null,
      "suspended_reason": null,
      "source_label": "F1/fragments[0]",
      "marker_id": "0",
      "side": "left",
      "connection_group": "<1",
      "marker_type_index": 3
    },
    {
      "id": 1,
      "bracket_kind": "backbone",
      "pairing_id": "F1/fragments[0]",
      "group_id": ">1:4",
      "ru_midpoint": [
        -1.299108962655769,
        -0.24861801721350543
      ],
      "bond_midpoint": [
        -0.00011325139057305478,
        -0.1986
      ],
      "orientation_vector": [
        0.0,
        1.0
      ],
      "half_bracket_size": 0.5001001599500254,
      "bond": [
        6,
        7
      ],
      "fragment": "F1",
      "backbone": true,
      "suspended_anchor_atom": null,
      "suspended_reason": null,
      "source_label": "F1/fragments[0]",
      "marker_id": "6",
      "side": "right",
      "connection_group": ">1",
      "marker_type_index": 4
    },
    {
      "id": 2,
      "bracket_kind": "backbone",
      "pairing_id": "F1/fragments[1]",
      "group_id": "<1:3",
      "ru_midpoint": [
        1.298757194898333,
        -0.14865928399185624
      ],
      "bond_midpoint": [
        -0.00011325139057305478,
        -0.1986
      ],
      "orientation_vector": [
        0.0,
        1.0
      ],
      "half_bracket_size": 0.5001001599500254,
      "bond": [
        6,
        7
      ],
      "fragment": "F1",
      "backbone": true,
      "suspended_anchor_atom": null,
      "suspended_reason": null,
      "source_label": "F1/fragments[1]",
      "marker_id": "0",
      "side": "left",
      "connection_group": "<1",
      "marker_type_index": 3
    },
    {
      "id": 3,
      "bracket_kind": "backbone",
      "pairing_id": "F1/fragments[1]",
      "group_id": ">1:4",
      "ru_midpoint": [
        1.298757194898333,
        -0.14865928399185624
      ],
      "bond_midpoint": [
        2.5977060837012744,
        -0.1986420810536383
      ],
      "orientation_vector": [
        0.0,
        1.0
      ],
      "half_bracket_size": 0.5001001599500254,
      "bond": [
        1,
        11
      ],
      "fragment": "F1",
      "backbone": true,
      "suspended_anchor_atom": null,
      "suspended_reason": null,
      "source_label": "F1/fragments[1]",
      "marker_id": "6",
      "side": "right",
      "connection_group": ">1",
      "marker_type_index": 4
    },
    {
      "id": 4,
      "bracket_kind": "backbone",
      "pairing_id": "F1/connected",
      "group_id": "$overall",
      "ru_midpoint": [
        -0.00018987358769706475,
        -0.19864784446781483
      ],
      "bond_midpoint": [
        -2.5980590415040608,
        -0.19860000000000017
      ],
      "orientation_vector": [
        0.0,
        1.0
      ],
      "half_bracket_size": 2.000122414949065,
      "bond": [
        0,
        2
      ],
      "fragment": "F1",
      "backbone": true,
      "suspended_anchor_atom": null,
      "suspended_reason": null,
      "source_label": "F1/connected",
      "marker_id": "connected-overall-left",
      "side": "left",
      "connection_group": "$overall",
      "marker_type_index": null
    },
    {
      "id": 5,
      "bracket_kind": "backbone",
      "pairing_id": "F1/connected",
      "group_id": "$overall",
      "ru_midpoint": [
        -0.00018987358769706475,
        -0.19864784446781483
      ],
      "bond_midpoint": [
        2.5977060837012744,
        -0.1986420810536383
      ],
      "orientation_vector": [
        0.0,
        1.0
      ],
      "half_bracket_size": 2.000122414949065,
      "bond": [
        1,
        11
      ],
      "fragment": "F1",
      "backbone": true,
      "suspended_anchor_atom": null,
      "suspended_reason": null,
      "source_label": "F1/connected",
      "marker_id": "connected-overall-right",
      "side": "right",
      "connection_group": "$overall",
      "marker_type_index": null
    }
  ]
}
