
     RDKit          2D

  0  0  0  0  0  0  0  0  0  0999 V3000
M  V30 BEGIN CTAB
M  V30 COUNTS 10 9 1 0 0
M  V30 BEGIN ATOM
M  V30 1 H -3.464170 0.051450 0.000000 0
M  V30 2 H 3.463697 0.051450 0.000000 0
M  V30 3 O -2.598150 -0.448650 0.000000 0
M  V30 4 C -1.732130 0.051450 0.000000 0
M  V30 5 C -0.866146 -0.448650 0.000000 0
M  V30 6 C 0.000074 0.051450 0.000000 0
M  V30 7 C 0.866057 -0.448650 0.000000 0
M  V30 8 C 1.731962 0.051450 0.000000 0
M  V30 9 C 2.597829 -0.448650 0.000000 0
M  V30 10 O 2.597820 -1.448652 0.000000 0
M  V30 END ATOM
M  V30 BEGIN BOND
M  V30 1 1 3 4
M  V30 2 1 4 5
M  V30 3 1 5 6
M  V30 4 1 6 7
M  V30 5 1 7 8
M  V30 6 1 8 9
M  V30 7 2 9 10
M  V30 8 1 1 3
M  V30 9 1 2 9
M  V30 END BOND
M  V30 BEGIN SGROUP
M  V30 1 SRU 0 ATOMS=(4 1 2 3 9) CBONDS=(2 8 9) -
M  V30 BRKXYZ=(9 -3.0312 0.3015 0 -3.0312 -0.6987 0 0 0 0) BRKXYZ=(9 3.0308 0.-
M  V30 3015 0 3.0308 -0.6987 0 0 0 0)
M  V30 END SGROUP
M  V30 END CTAB
M  END
>  <BIGSMILES_BRACKET_RECORDS_JSON>
{
  "records": [
    {
      "id": 0,
      "bracket_kind": "backbone",
      "pairing_id": "F1/fragments[0]",
      "group_id": "<1:3",
      "ru_midpoint": [
        -0.00016670732041784708,
        -0.1708265543124461
      ],
      "bond_midpoint": [
        -3.031159782660401,
        -0.1986
      ],
      "orientation_vector": [
        0.0,
        1.0
      ],
      "half_bracket_size": 0.5001009994649712,
      "bond": [
        0,
        2
      ],
      "fragment": "F1",
      "backbone": true,
      "suspended_anchor_atom": null,
      "suspended_reason": null,
      "source_label": "F1/fragments[0]",
      "marker_id": "0",
      "side": "left",
      "connection_group": "<1",
      "marker_type_index": 3
    },
    {
      "id": 1,
      "bracket_kind": "backbone",
      "pairing_id": "F1/fragments[0]",
      "group_id": ">1:4",
      "ru_midpoint": [
        -0.00016670732041784708,
        -0.1708265543124461
      ],
      "bond_midpoint": [
        3.0307632238830005,
        -0.1986
      ],
      "orientation_vector": [
        0.0,
        1.0
      ],
      "half_bracket_size": 0.5001009994649712,
      "bond": [
        1,
        8
      ],
      "fragment": "F1",
      "backbone": true,
      "suspended_anchor_atom": null,
      "suspended_reason": null,
      "source_label": "F1/fragments[0]",
      "marker_id": "9",
      "side": "right",
      "connection_group": ">1",
      "marker_type_index": 4
    }
  ]
}
