
     RDKit          2D

  0  0  0  0  0  0  0  0  0  0999 V3000
M  V30 BEGIN CTAB
M  V30 COUNTS 17 16 1 0 0
M  V30 BEGIN ATOM
M  V30 1 H -6.061690 0.051450 0.000000 0
M  V30 2 H 6.061274 0.051450 0.000000 0
M  V30 3 O -5.195686 -0.448650 0.000000 0
M  V30 4 C -4.329681 0.051450 0.000000 0
M  V30 5 C -3.463685 -0.448650 0.000000 0
M  V30 6 O -2.597796 0.051450 0.000000 0
M  V30 7 C -1.731915 -0.448650 0.000000 0
M  V30 8 O -1.731917 -1.448650 0.000000 0
M  V30 9 C -0.866027 0.051450 0.000000 0
M  V30 10 C -0.000146 -0.448650 0.000000 0
M  V30 11 C 0.865743 0.051450 0.000000 0
M  V30 12 C 1.731624 -0.448650 0.000000 0
M  V30 13 C 2.597513 0.051450 0.000000 0
M  V30 14 C 3.463393 -0.448650 0.000000 0
M  V30 15 C 4.329282 0.051450 0.000000 0
M  V30 16 C 5.195278 -0.448650 0.000000 0
M  V30 17 O 5.195276 -1.448650 0.000000 0
M  V30 END ATOM
M  V30 BEGIN BOND
M  V30 1 1 3 4
M  V30 2 1 4 5
M  V30 3 1 5 6
M  V30 4 1 6 7
M  V30 5 2 7 8
M  V30 6 1 7 9
M  V30 7 1 9 10
M  V30 8 1 10 11
M  V30 9 1 11 12
M  V30 10 1 12 13
M  V30 11 1 13 14
M  V30 12 1 14 15
M  V30 13 1 15 16
M  V30 14 2 16 17
M  V30 15 1 1 3
M  V30 16 1 2 16
M  V30 END BOND
M  V30 BEGIN SGROUP
M  V30 1 SRU 0 ATOMS=(4 1 2 3 16) CBONDS=(2 15 16) -
M  V30 BRKXYZ=(9 -5.6287 0.3015 0 -5.6287 -0.6987 0 0 0 0) BRKXYZ=(9 5.6283 0.-
M  V30 3015 0 5.6283 -0.6987 0 0 0 0)
M  V30 END SGROUP
M  V30 END CTAB
M  END
>  <BIGSMILES_BRACKET_RECORDS_JSON>
{
  "records": [
    {
      "id": 0,
      "bracket_kind": "backbone",
      "pairing_id": "F1/mergedFragments[0]",
      "group_id": "<1:3",
      "ru_midpoint": [
        -0.00017205983020363025,
        -0.18191582744293713
      ],
      "bond_midpoint": [
        -5.62868788438537,
        -0.19860000000000005
      ],
      "orientation_vector": [
        0.0,
        1.0
      ],
      "half_bracket_size": 0.5001001599500254,
      "bond": [
        0,
        2
      ],
      "fragment": "F1",
      "backbone": true,
      "suspended_anchor_atom": null,
      "suspended_reason": null,
      "source_label": "F1/mergedFragments[0]",
      "marker_id": "0",
      "side": "left",
      "connection_group": "<1",
      "marker_type_index": 3
    },
    {
      "id": 1,
      "bracket_kind": "backbone",
      "pairing_id": "F1/mergedFragments[0]",
      "group_id": ">1:4",
      "ru_midpoint": [
        -0.00017205983020363025,
        -0.18191582744293713
      ],
      "bond_midpoint": [
        5.628276302403191,
        -0.19859999999999994
      ],
      "orientation_vector": [
        0.0,
        1.0
      ],
      "half_bracket_size": 0.5001001599500254,
      "bond": [
        1,
        15
      ],
      "fragment": "F1",
      "backbone": true,
      "suspended_anchor_atom": null,
      "suspended_reason": null,
      "source_label": "F1/mergedFragments[0]",
      "marker_id": "16",
      "side": "right",
      "connection_group": ">1",
      "marker_type_index": 4
    }
  ]
}
