
     RDKit          2D

  0  0  0  0  0  0  0  0  0  0999 V3000
M  V30 BEGIN CTAB
M  V30 COUNTS 18 17 1 0 0
M  V30 BEGIN ATOM
M  V30 1 H -6.494890 0.051400 0.000000 0
M  V30 2 H 6.494607 -0.448600 0.000000 0
M  V30 3 O -5.628944 -0.448600 0.000000 0
M  V30 4 C -4.762997 0.051400 0.000000 0
M  V30 5 C -3.897058 -0.448600 0.000000 0
M  V30 6 O -3.031112 0.051400 0.000000 0
M  V30 7 C -2.165173 -0.448600 0.000000 0
M  V30 8 O -2.165175 -1.448600 0.000000 0
M  V30 9 C -1.299227 0.051400 0.000000 0
M  V30 10 C -0.433288 -0.448600 0.000000 0
M  V30 11 C 0.432658 0.051400 0.000000 0
M  V30 12 C 1.298597 -0.448600 0.000000 0
M  V30 13 C 2.164544 0.051400 0.000000 0
M  V30 14 C 3.030482 -0.448600 0.000000 0
M  V30 15 C 3.896429 0.051400 0.000000 0
M  V30 16 C 4.762482 -0.448600 0.000000 0
M  V30 17 C 5.628545 0.051400 0.000000 0
M  V30 18 O 5.628547 1.051400 0.000000 0
M  V30 END ATOM
M  V30 BEGIN BOND
M  V30 1 1 3 4
M  V30 2 1 4 5
M  V30 3 1 5 6
M  V30 4 1 6 7
M  V30 5 2 7 8
M  V30 6 1 7 9
M  V30 7 1 9 10
M  V30 8 1 10 11
M  V30 9 1 11 12
M  V30 10 1 12 13
M  V30 11 1 13 14
M  V30 12 1 14 15
M  V30 13 1 15 16
M  V30 14 1 16 17
M  V30 15 2 17 18
M  V30 16 1 1 3
M  V30 17 1 2 17
M  V30 END BOND
M  V30 BEGIN SGROUP
M  V30 1 SRU 0 ATOMS=(4 1 2 3 17) CBONDS=(2 16 17) -
M  V30 BRKXYZ=(9 -6.0619 0.3014 0 -6.0619 -0.6986 0 0 0 0) BRKXYZ=(9 6.0616 0.-
M  V30 3014 0 6.0616 -0.6986 0 0 0 0)
M  V30 END SGROUP
M  V30 END CTAB
M  END
>  <BIGSMILES_BRACKET_RECORDS_JSON>
{
  "records": [
    {
      "id": 0,
      "bracket_kind": "backbone",
      "pairing_id": "F1/mergedFragments[0]",
      "group_id": "<1:3",
      "ru_midpoint": [
        -0.0002210149581384213,
        -0.1986000000000013
      ],
      "bond_midpoint": [
        -6.061916846003227,
        -0.1986
      ],
      "orientation_vector": [
        0.0,
        1.0
      ],
      "half_bracket_size": 0.5000001571291949,
      "bond": [
        0,
        2
      ],
      "fragment": "F1",
      "backbone": true,
      "suspended_anchor_atom": null,
      "suspended_reason": null,
      "source_label": "F1/mergedFragments[0]",
      "marker_id": "0",
      "side": "left",
      "connection_group": "<1",
      "marker_type_index": 3
    },
    {
      "id": 1,
      "bracket_kind": "backbone",
      "pairing_id": "F1/mergedFragments[0]",
      "group_id": ">1:4",
      "ru_midpoint": [
        -0.0002210149581384213,
        -0.1986000000000013
      ],
      "bond_midpoint": [
        6.061575794897922,
        -0.19859999999999994
      ],
      "orientation_vector": [
        0.0,
        1.0
      ],
      "half_bracket_size": 0.5000001571291949,
      "bond": [
        1,
        16
      ],
      "fragment": "F1",
      "backbone": true,
      "suspended_anchor_atom": null,
      "suspended_reason": null,
      "source_label": "F1/mergedFragments[0]",
      "marker_id": "17",
      "side": "right",
      "connection_group": ">1",
      "marker_type_index": 4
    }
  ]
}
