
     RDKit          2D

  0  0  0  0  0  0  0  0  0  0999 V3000
M  V30 BEGIN CTAB
M  V30 COUNTS 37 37 1 0 0
M  V30 BEGIN ATOM
M  V30 1 H -5.650682 0.051035 0.000000 0
M  V30 2 H 5.656748 -0.448507 0.000000 0
M  V30 3 C -4.791913 -0.448507 0.000000 0
M  V30 4 C -4.791913 -1.443216 0.000000 0
M  V30 5 F -3.790928 -1.441702 0.000000 0
M  V30 6 F -4.291049 -2.307837 0.000000 0
M  V30 7 F -5.656832 -1.941947 0.000000 0
M  V30 8 O -3.933145 0.051035 0.000000 0
M  V30 9 C -3.072107 -0.448507 0.000000 0
M  V30 10 F -3.072107 0.543297 0.000000 0
M  V30 11 F -3.072107 -1.445672 0.000000 0
M  V30 12 C -2.217137 0.051035 0.000000 0
M  V30 13 F -2.217137 1.023498 0.000000 0
M  V30 14 F -2.217137 -0.951691 0.000000 0
M  V30 15 C -1.294535 -0.448507 0.000000 0
M  V30 16 F -1.294535 0.550293 0.000000 0
M  V30 17 F -1.294535 -1.437882 0.000000 0
M  V30 18 C -0.412787 0.051035 0.000000 0
M  V30 19 F -0.412787 1.050731 0.000000 0
M  V30 20 F -0.412787 -0.954805 0.000000 0
M  V30 21 C 0.415023 -0.448507 0.000000 0
M  V30 22 F 0.415023 0.556681 0.000000 0
M  V30 23 F 0.415023 -1.417083 0.000000 0
M  V30 24 O 1.318092 0.051035 0.000000 0
M  V30 25 C 2.192003 -0.448507 0.000000 0
M  V30 26 F 2.192003 0.477114 0.000000 0
M  V30 27 C 2.192003 -1.548579 0.000000 0
M  V30 28 F 3.186252 -1.620748 0.000000 0
M  V30 29 F 2.646281 -2.437567 0.000000 0
M  V30 30 F 1.311392 -2.024612 0.000000 0
M  V30 31 C 3.058028 0.051493 0.000000 0
M  V30 32 N 3.924375 -0.448693 0.000000 0
M  V30 33 C 4.790722 0.051493 0.000000 0
M  V30 34 N 4.790722 1.051864 0.000000 0
M  V30 35 C 3.924375 1.552050 0.000000 0
M  V30 36 C 3.924375 2.551666 0.000000 0
M  V30 37 N 3.058028 1.051864 0.000000 0
M  V30 END ATOM
M  V30 BEGIN BOND
M  V30 1 1 3 4
M  V30 2 1 4 5
M  V30 3 1 4 6
M  V30 4 1 4 7
M  V30 5 1 3 8
M  V30 6 1 8 9
M  V30 7 1 9 10
M  V30 8 1 9 11
M  V30 9 1 9 12
M  V30 10 1 12 13
M  V30 11 1 12 14
M  V30 12 1 12 15
M  V30 13 1 15 16
M  V30 14 1 15 17
M  V30 15 1 15 18
M  V30 16 1 18 19
M  V30 17 1 18 20
M  V30 18 1 18 21
M  V30 19 1 21 22
M  V30 20 1 21 23
M  V30 21 1 21 24
M  V30 22 1 24 25
M  V30 23 1 25 26
M  V30 24 1 25 27
M  V30 25 1 27 28
M  V30 26 1 27 29
M  V30 27 1 27 30
M  V30 28 1 25 31
M  V30 29 2 31 32
M  V30 30 1 32 33
M  V30 31 2 33 34
M  V30 32 1 34 35
M  V30 33 1 35 36
M  V30 34 2 35 37
M  V30 35 1 37 31
M  V30 36 1 1 3
M  V30 37 1 2 33
M  V30 END BOND
M  V30 BEGIN SGROUP
M  V30 1 SRU 0 ATOMS=(4 1 2 3 33) CBONDS=(2 36 37) -
M  V30 BRKXYZ=(9 -5.2213 1.8020 0 -5.2213 -2.1995 0 0 0 0) BRKXYZ=(9 5.2237 1.-
M  V30 8022 0 5.2237 -2.1993 0 0 0 0)
M  V30 END SGROUP
M  V30 END CTAB
M  END
>  <BIGSMILES_BRACKET_RECORDS_JSON>
{
  "records": [
    {
      "id": 0,
      "bracket_kind": "backbone",
      "pairing_id": "F1/fragments[0]",
      "group_id": "<1:3",
      "ru_midpoint": [
        0.694766547159452,
        0.05119517875222632
      ],
      "bond_midpoint": [
        -5.221297484467095,
        -0.19873584035984093
      ],
      "orientation_vector": [
        0.0,
        1.0
      ],
      "half_bracket_size": 2.000742914014085,
      "bond": [
        0,
        2
      ],
      "fragment": "F1",
      "backbone": true,
      "suspended_anchor_atom": null,
      "suspended_reason": null,
      "source_label": "F1/fragments[0]",
      "marker_id": "0",
      "side": "left",
      "connection_group": "<1",
      "marker_type_index": 3
    },
    {
      "id": 1,
      "bracket_kind": "backbone",
      "pairing_id": "F1/fragments[0]",
      "group_id": ">1:4",
      "ru_midpoint": [
        0.694766547159452,
        0.05119517875222632
      ],
      "bond_midpoint": [
        5.223734926323672,
        -0.1985071357482417
      ],
      "orientation_vector": [
        0.0,
        1.0
      ],
      "half_bracket_size": 2.000742914014085,
      "bond": [
        1,
        32
      ],
      "fragment": "F1",
      "backbone": true,
      "suspended_anchor_atom": null,
      "suspended_reason": null,
      "source_label": "F1/fragments[0]",
      "marker_id": "36",
      "side": "right",
      "connection_group": ">1",
      "marker_type_index": 4
    }
  ]
}
