
     RDKit          2D

  0  0  0  0  0  0  0  0  0  0999 V3000
M  V30 BEGIN CTAB
M  V30 COUNTS 45 45 1 0 0
M  V30 BEGIN ATOM
M  V30 1 H -6.523673 -0.447056 0.000000 0
M  V30 2 H 6.517316 0.051311 0.000000 0
M  V30 3 C -5.653767 0.051311 0.000000 0
M  V30 4 C -5.653767 1.062602 0.000000 0
M  V30 5 F -4.651996 1.067707 0.000000 0
M  V30 6 F -5.155025 1.933323 0.000000 0
M  V30 7 F -6.519588 1.562725 0.000000 0
M  V30 8 O -4.783862 -0.447056 0.000000 0
M  V30 9 C -3.932833 0.051311 0.000000 0
M  V30 10 F -3.932833 -0.945526 0.000000 0
M  V30 11 F -3.932833 1.049609 0.000000 0
M  V30 12 C -3.061153 -0.447056 0.000000 0
M  V30 13 F -3.061153 -1.446939 0.000000 0
M  V30 14 F -3.061153 0.550032 0.000000 0
M  V30 15 C -2.188783 0.051311 0.000000 0
M  V30 16 F -2.188783 -0.937902 0.000000 0
M  V30 17 F -2.188783 1.051137 0.000000 0
M  V30 18 C -1.296144 -0.447056 0.000000 0
M  V30 19 F -1.296144 -1.433095 0.000000 0
M  V30 20 F -1.296144 0.527179 0.000000 0
M  V30 21 C -0.422873 0.051311 0.000000 0
M  V30 22 F -0.422873 -0.934049 0.000000 0
M  V30 23 F -0.422873 1.032879 0.000000 0
M  V30 24 C 0.470722 -0.447056 0.000000 0
M  V30 25 F 0.470722 -1.434039 0.000000 0
M  V30 26 F 0.470722 0.552752 0.000000 0
M  V30 27 C 1.329193 0.051311 0.000000 0
M  V30 28 F 1.329193 -0.930663 0.000000 0
M  V30 29 F 1.329193 1.026423 0.000000 0
M  V30 30 O 2.188045 -0.447056 0.000000 0
M  V30 31 C 3.052600 0.051311 0.000000 0
M  V30 32 C 3.052600 1.062461 0.000000 0
M  V30 33 F 2.055992 1.067681 0.000000 0
M  V30 34 F 2.558050 1.929972 0.000000 0
M  V30 35 F 3.899691 1.556548 0.000000 0
M  V30 36 C 3.918625 -0.448689 0.000000 0
M  V30 37 N 4.784958 0.051489 0.000000 0
M  V30 38 C 5.651290 -0.448689 0.000000 0
M  V30 39 N 5.651290 -1.449043 0.000000 0
M  V30 40 C 4.784958 -1.949220 0.000000 0
M  V30 41 C 4.784958 -2.948915 0.000000 0
M  V30 42 F 3.784915 -2.947948 0.000000 0
M  V30 43 F 4.284007 -3.814504 0.000000 0
M  V30 44 F 5.650448 -3.449692 0.000000 0
M  V30 45 N 3.918625 -1.449043 0.000000 0
M  V30 END ATOM
M  V30 BEGIN BOND
M  V30 1 1 3 4
M  V30 2 1 4 5
M  V30 3 1 4 6
M  V30 4 1 4 7
M  V30 5 1 3 8
M  V30 6 1 8 9
M  V30 7 1 9 10
M  V30 8 1 9 11
M  V30 9 1 9 12
M  V30 10 1 12 13
M  V30 11 1 12 14
M  V30 12 1 12 15
M  V30 13 1 15 16
M  V30 14 1 15 17
M  V30 15 1 15 18
M  V30 16 1 18 19
M  V30 17 1 18 20
M  V30 18 1 18 21
M  V30 19 1 21 22
M  V30 20 1 21 23
M  V30 21 1 21 24
M  V30 22 1 24 25
M  V30 23 1 24 26
M  V30 24 1 24 27
M  V30 25 1 27 28
M  V30 26 1 27 29
M  V30 27 1 27 30
M  V30 28 1 30 31
M  V30 29 1 31 32
M  V30 30 1 32 33
M  V30 31 1 32 34
M  V30 32 1 32 35
M  V30 33 1 31 36
M  V30 34 2 36 37
M  V30 35 1 37 38
M  V30 36 2 38 39
M  V30 37 1 39 40
M  V30 38 1 40 41
M  V30 39 1 41 42
M  V30 40 1 41 43
M  V30 41 1 41 44
M  V30 42 2 40 45
M  V30 43 1 45 36
M  V30 44 1 1 3
M  V30 45 1 2 38
M  V30 END BOND
M  V30 BEGIN SGROUP
M  V30 1 SRU 0 ATOMS=(4 1 2 3 38) CBONDS=(2 44 45) -
M  V30 BRKXYZ=(9 -6.0887 1.8028 0 -6.0887 -2.1986 0 0 0 0) BRKXYZ=(9 6.0843 1.-
M  V30 8020 0 6.0843 -2.1994 0 0 0 0)
M  V30 END SGROUP
M  V30 END CTAB
M  END
>  <BIGSMILES_BRACKET_RECORDS_JSON>
{
  "records": [
    {
      "id": 0,
      "bracket_kind": "backbone",
      "pairing_id": "F1/fragments[0]",
      "group_id": "<1:3",
      "ru_midpoint": [
        0.7566010683035809,
        -0.4212595535894448
      ],
      "bond_midpoint": [
        -6.088720030122947,
        -0.19787218860823064
      ],
      "orientation_vector": [
        0.0,
        1.0
      ],
      "half_bracket_size": 2.0007090639010268,
      "bond": [
        0,
        2
      ],
      "fragment": "F1",
      "backbone": true,
      "suspended_anchor_atom": null,
      "suspended_reason": null,
      "source_label": "F1/fragments[0]",
      "marker_id": "0",
      "side": "left",
      "connection_group": "<1",
      "marker_type_index": 3
    },
    {
      "id": 1,
      "bracket_kind": "backbone",
      "pairing_id": "F1/fragments[0]",
      "group_id": ">1:4",
      "ru_midpoint": [
        0.7566010683035809,
        -0.4212595535894448
      ],
      "bond_midpoint": [
        6.084302946992443,
        -0.1986886329876279
      ],
      "orientation_vector": [
        0.0,
        1.0
      ],
      "half_bracket_size": 2.0007090639010268,
      "bond": [
        1,
        37
      ],
      "fragment": "F1",
      "backbone": true,
      "suspended_anchor_atom": null,
      "suspended_reason": null,
      "source_label": "F1/fragments[0]",
      "marker_id": "44",
      "side": "right",
      "connection_group": ">1",
      "marker_type_index": 4
    }
  ]
}
