
     RDKit          2D

  0  0  0  0  0  0  0  0  0  0999 V3000
M  V30 BEGIN CTAB
M  V30 COUNTS 12 11 1 0 0
M  V30 BEGIN ATOM
M  V30 1 H -3.896991 0.051450 0.000000 0
M  V30 2 H 3.896392 -0.448650 0.000000 0
M  V30 3 O -3.031008 -0.448650 0.000000 0
M  V30 4 C -2.165024 0.051450 0.000000 0
M  V30 5 C -1.299119 -0.448650 0.000000 0
M  V30 6 O -0.433252 0.051450 0.000000 0
M  V30 7 C 0.432653 -0.448650 0.000000 0
M  V30 8 O 0.432662 -1.448652 0.000000 0
M  V30 9 C 1.298520 0.051450 0.000000 0
M  V30 10 C 2.164425 -0.448650 0.000000 0
M  V30 11 C 3.030409 0.051450 0.000000 0
M  V30 12 O 3.030349 1.051452 0.000000 0
M  V30 END ATOM
M  V30 BEGIN BOND
M  V30 1 1 3 4
M  V30 2 1 4 5
M  V30 3 1 5 6
M  V30 4 1 6 7
M  V30 5 2 7 8
M  V30 6 1 7 9
M  V30 7 1 9 10
M  V30 8 1 10 11
M  V30 9 2 11 12
M  V30 10 1 1 3
M  V30 11 1 2 11
M  V30 END BOND
M  V30 BEGIN SGROUP
M  V30 1 SRU 0 ATOMS=(4 1 2 3 11) CBONDS=(2 10 11) -
M  V30 BRKXYZ=(9 -3.4640 0.3015 0 -3.4640 -0.6987 0 0 0 0) BRKXYZ=(9 3.4634 0.-
M  V30 3015 0 3.4634 -0.6987 0 0 0 0)
M  V30 END SGROUP
M  V30 END CTAB
M  END
>  <BIGSMILES_BRACKET_RECORDS_JSON>
{
  "records": [
    {
      "id": 0,
      "bracket_kind": "backbone",
      "pairing_id": "F1/mergedFragments[0]",
      "group_id": "<1:3",
      "ru_midpoint": [
        -0.00030455314291744084,
        -0.19864334652839186
      ],
      "bond_midpoint": [
        -3.4639994375022276,
        -0.1986
      ],
      "orientation_vector": [
        0.0,
        1.0
      ],
      "half_bracket_size": 0.5001009994649712,
      "bond": [
        0,
        2
      ],
      "fragment": "F1",
      "backbone": true,
      "suspended_anchor_atom": null,
      "suspended_reason": null,
      "source_label": "F1/mergedFragments[0]",
      "marker_id": "0",
      "side": "left",
      "connection_group": "<1",
      "marker_type_index": 3
    },
    {
      "id": 1,
      "bracket_kind": "backbone",
      "pairing_id": "F1/mergedFragments[0]",
      "group_id": ">1:4",
      "ru_midpoint": [
        -0.00030455314291744084,
        -0.19864334652839186
      ],
      "bond_midpoint": [
        3.463400342859315,
        -0.19859999999999994
      ],
      "orientation_vector": [
        0.0,
        1.0
      ],
      "half_bracket_size": 0.5001009994649712,
      "bond": [
        1,
        10
      ],
      "fragment": "F1",
      "backbone": true,
      "suspended_anchor_atom": null,
      "suspended_reason": null,
      "source_label": "F1/mergedFragments[0]",
      "marker_id": "11",
      "side": "right",
      "connection_group": ">1",
      "marker_type_index": 4
    }
  ]
}
