
     RDKit          2D

  0  0  0  0  0  0  0  0  0  0999 V3000
M  V30 BEGIN CTAB
M  V30 COUNTS 12 11 4 0 0
M  V30 BEGIN ATOM
M  V30 1 H -3.031438 0.001824 0.000000 0
M  V30 2 O 2.164934 0.001764 0.000000 0
M  V30 3 O -2.165376 -0.498114 0.000000 0
M  V30 4 C -1.299372 0.001787 0.000000 0
M  V30 5 C -0.433260 -0.498114 0.000000 0
M  V30 6 C 0.432823 0.001787 0.000000 0
M  V30 7 C 1.298880 -0.498187 0.000000 0
M  V30 8 O 1.298880 -1.498187 0.000000 0
M  V30 9 H 1.798829 -4.096339 0.000000 0
M  V30 10 C 1.798852 -2.364228 0.000000 0
M  V30 11 C 1.298879 -3.230285 0.000000 0
M  V30 12 O 0.298877 -3.230285 0.000000 0
M  V30 END ATOM
M  V30 BEGIN BOND
M  V30 1 1 3 4
M  V30 2 1 4 5
M  V30 3 1 6 7
M  V30 4 1 10 11
M  V30 5 1 11 12
M  V30 6 1 8 10
M  V30 7 1 9 11
M  V30 8 1 7 8
M  V30 9 1 5 6
M  V30 10 1 1 3
M  V30 11 1 2 7
M  V30 END BOND
M  V30 BEGIN SGROUP
M  V30 1 SRU 0 ATOMS=(4 8 9 10 11) CBONDS=(2 6 7) -
M  V30 BRKXYZ=(9 2.0488 -1.9312 0 1.0489 -1.9312 0 0 0 0) BRKXYZ=(9 2.0488 -3.-
M  V30 6633 0 1.0489 -3.6633 0 0 0 0)
M  V30 2 SRU 0 ATOMS=(4 2 5 6 7) CBONDS=(2 9 11) -
M  V30 BRKXYZ=(9 -0.0002 0.2518 0 -0.0002 -0.7481 0 0 0 0) BRKXYZ=(9 1.7319 0.-
M  V30 2518 0 1.7319 -0.7482 0 0 0 0)
M  V30 3 SRU 0 ATOMS=(4 1 3 5 6) CBONDS=(2 9 10) -
M  V30 BRKXYZ=(9 -2.5984 0.2518 0 -2.5984 -0.7480 0 0 0 0) BRKXYZ=(9 -0.0002 0-
M  V30 .2517 0 -0.0002 -0.7481 0 0 0 0)
M  V30 4 SRU 0 ATOMS=(4 1 2 3 7) CBONDS=(2 10 11) -
M  V30 BRKXYZ=(9 -2.5984 3.8500 0 -2.5984 -4.3463 0 0 0 0) BRKXYZ=(9 1.7319 3.-
M  V30 8499 0 1.7319 -4.3463 0 0 0 0)
M  V30 END SGROUP
M  V30 END CTAB
M  END
>  <BIGSMILES_BRACKET_RECORDS_JSON>
{
  "records": [
    {
      "id": 0,
      "bracket_kind": "backbone",
      "pairing_id": "F3/fragments[0]",
      "group_id": "<1:3",
      "ru_midpoint": [
        1.5488653755775021,
        -2.797269332652284
      ],
      "bond_midpoint": [
        1.5488658755490614,
        -1.9312072969948524
      ],
      "orientation_vector": [
        1.0,
        0.0
      ],
      "half_bracket_size": 0.49997305922523294,
      "bond": [
        7,
        9
      ],
      "fragment": "F3",
      "backbone": true,
      "suspended_anchor_atom": null,
      "suspended_reason": null,
      "source_label": "F3/fragments[0]",
      "marker_id": "0",
      "side": "left",
      "connection_group": "<1",
      "marker_type_index": 3
    },
    {
      "id": 1,
      "bracket_kind": "backbone",
      "pairing_id": "F3/fragments[0]",
      "group_id": ">1:4",
      "ru_midpoint": [
        1.5488653755775021,
        -2.797269332652284
      ],
      "bond_midpoint": [
        1.5488539319800019,
        -3.6633124108241812
      ],
      "orientation_vector": [
        1.0,
        0.0
      ],
      "half_bracket_size": 0.49997305922523294,
      "bond": [
        8,
        10
      ],
      "fragment": "F3",
      "backbone": true,
      "suspended_anchor_atom": null,
      "suspended_reason": null,
      "source_label": "F3/fragments[0]",
      "marker_id": "4",
      "side": "right",
      "connection_group": ">1",
      "marker_type_index": 4
    },
    {
      "id": 2,
      "bracket_kind": "backbone",
      "pairing_id": "F1-1/subMolblock",
      "group_id": "<1:3",
      "ru_midpoint": [
        0.8658638527685967,
        -0.24820000000000011
      ],
      "bond_midpoint": [
        -0.00021893488338320388,
        -0.2481635503950646
      ],
      "orientation_vector": [
        0.0,
        1.0
      ],
      "half_bracket_size": 0.4999730592252327,
      "bond": [
        4,
        5
      ],
      "fragment": "F1-1",
      "backbone": true,
      "suspended_anchor_atom": null,
      "suspended_reason": null,
      "source_label": "F1-1/subMolblock",
      "marker_id": "0",
      "side": "left",
      "connection_group": "<1",
      "marker_type_index": 3
    },
    {
      "id": 3,
      "bracket_kind": "backbone",
      "pairing_id": "F1-1/subMolblock",
      "group_id": ">1:4",
      "ru_midpoint": [
        0.8658638527685967,
        -0.24820000000000011
      ],
      "bond_midpoint": [
        1.7319069309404937,
        -0.24821144359749986
      ],
      "orientation_vector": [
        0.0,
        1.0
      ],
      "half_bracket_size": 0.4999730592252327,
      "bond": [
        1,
        6
      ],
      "fragment": "F1-1",
      "backbone": true,
      "suspended_anchor_atom": null,
      "suspended_reason": null,
      "source_label": "F1-1/subMolblock",
      "marker_id": "4",
      "side": "right",
      "connection_group": ">1",
      "marker_type_index": 4
    },
    {
      "id": 4,
      "bracket_kind": "backbone",
      "pairing_id": "F1/fragments[0]",
      "group_id": "<1:3",
      "ru_midpoint": [
        -1.299304348847118,
        -0.19817353439352844
      ],
      "bond_midpoint": [
        -2.598406993167243,
        -0.24814475202856565
      ],
      "orientation_vector": [
        0.0,
        1.0
      ],
      "half_bracket_size": 0.49990016001536197,
      "bond": [
        0,
        2
      ],
      "fragment": "F1",
      "backbone": true,
      "suspended_anchor_atom": null,
      "suspended_reason": null,
      "source_label": "F1/fragments[0]",
      "marker_id": "0",
      "side": "left",
      "connection_group": "<1",
      "marker_type_index": 3
    },
    {
      "id": 5,
      "bracket_kind": "backbone",
      "pairing_id": "F1/fragments[0]",
      "group_id": ">1:4",
      "ru_midpoint": [
        -1.299304348847118,
        -0.19817353439352844
      ],
      "bond_midpoint": [
        -0.00021893488338320388,
        -0.2481635503950646
      ],
      "orientation_vector": [
        0.0,
        1.0
      ],
      "half_bracket_size": 0.49990016001536197,
      "bond": [
        4,
        5
      ],
      "fragment": "F1",
      "backbone": true,
      "suspended_anchor_atom": null,
      "suspended_reason": null,
      "source_label": "F1/fragments[0]",
      "marker_id": "4",
      "side": "right",
      "connection_group": ">1",
      "marker_type_index": 4
    },
    {
      "id": 6,
      "bracket_kind": "backbone",
      "pairing_id": "F1/connected",
      "group_id": "$overall",
      "ru_midpoint": [
        0.2875213120532467,
        -1.152391553418701
      ],
      "bond_midpoint": [
        -2.598406993167243,
        -0.24814475202856565
      ],
      "orientation_vector": [
        0.0,
        1.0
      ],
      "half_bracket_size": 4.098126025469288,
      "bond": [
        0,
        2
      ],
      "fragment": "F1",
      "backbone": true,
      "suspended_anchor_atom": null,
      "suspended_reason": null,
      "source_label": "F1/connected",
      "marker_id": "connected-overall-left",
      "side": "left",
      "connection_group": "$overall",
      "marker_type_index": null
    },
    {
      "id": 7,
      "bracket_kind": "backbone",
      "pairing_id": "F1/connected",
      "group_id": "$overall",
      "ru_midpoint": [
        0.2875213120532467,
        -1.152391553418701
      ],
      "bond_midpoint": [
        1.7319069309404937,
        -0.24821144359749986
      ],
      "orientation_vector": [
        0.0,
        1.0
      ],
      "half_bracket_size": 4.098126025469288,
      "bond": [
        1,
        6
      ],
      "fragment": "F1",
      "backbone": true,
      "suspended_anchor_atom": null,
      "suspended_reason": null,
      "source_label": "F1/connected",
      "marker_id": "connected-overall-right",
      "side": "right",
      "connection_group": "$overall",
      "marker_type_index": null
    }
  ]
}
