
     RDKit          2D

  0  0  0  0  0  0  0  0  0  0999 V3000
M  V30 BEGIN CTAB
M  V30 COUNTS 15 14 1 0 0
M  V30 BEGIN ATOM
M  V30 1 H -5.629269 -0.448601 0.000000 0
M  V30 2 H 5.628870 0.051401 0.000000 0
M  V30 3 N -4.763228 0.051401 0.000000 0
M  V30 4 C -3.897187 -0.448601 0.000000 0
M  V30 5 C -3.031109 0.051401 0.000000 0
M  V30 6 C -2.165068 -0.448601 0.000000 0
M  V30 7 C -1.299106 0.051401 0.000000 0
M  V30 8 C -0.433181 -0.448601 0.000000 0
M  V30 9 C 0.432782 0.051401 0.000000 0
M  V30 10 C 1.298707 -0.448601 0.000000 0
M  V30 11 C 2.164669 0.051401 0.000000 0
M  V30 12 C 3.030710 -0.448601 0.000000 0
M  V30 13 C 3.896788 0.051401 0.000000 0
M  V30 14 C 4.762829 -0.448601 0.000000 0
M  V30 15 O 4.762799 -1.448603 0.000000 0
M  V30 END ATOM
M  V30 BEGIN BOND
M  V30 1 1 3 4
M  V30 2 1 4 5
M  V30 3 1 5 6
M  V30 4 1 6 7
M  V30 5 1 7 8
M  V30 6 1 8 9
M  V30 7 1 9 10
M  V30 8 1 10 11
M  V30 9 1 11 12
M  V30 10 1 12 13
M  V30 11 1 13 14
M  V30 12 2 14 15
M  V30 13 1 1 3
M  V30 14 1 2 14
M  V30 END BOND
M  V30 BEGIN SGROUP
M  V30 1 SRU 0 ATOMS=(4 1 2 3 14) CBONDS=(2 13 14) -
M  V30 BRKXYZ=(9 -5.1962 0.3014 0 -5.1962 -0.6986 0 0 0 0) BRKXYZ=(9 5.1958 0.-
M  V30 3014 0 5.1958 -0.6986 0 0 0 0)
M  V30 END SGROUP
M  V30 END CTAB
M  END
>  <BIGSMILES_BRACKET_RECORDS_JSON>
{
  "records": [
    {
      "id": 0,
      "bracket_kind": "backbone",
      "pairing_id": "F1/fragments[0]",
      "group_id": "<1:3",
      "ru_midpoint": [
        -0.0001994341802318833,
        -0.1986000000000004
      ],
      "bond_midpoint": [
        -5.196248408941843,
        -0.1986
      ],
      "orientation_vector": [
        0.0,
        1.0
      ],
      "half_bracket_size": 0.5000012062947404,
      "bond": [
        0,
        2
      ],
      "fragment": "F1",
      "backbone": true,
      "suspended_anchor_atom": null,
      "suspended_reason": null,
      "source_label": "F1/fragments[0]",
      "marker_id": "0",
      "side": "left",
      "connection_group": "<1",
      "marker_type_index": 3
    },
    {
      "id": 1,
      "bracket_kind": "backbone",
      "pairing_id": "F1/fragments[0]",
      "group_id": ">1:4",
      "ru_midpoint": [
        -0.0001994341802318833,
        -0.1986000000000004
      ],
      "bond_midpoint": [
        5.195849540581379,
        -0.1986000000000001
      ],
      "orientation_vector": [
        0.0,
        1.0
      ],
      "half_bracket_size": 0.5000012062947404,
      "bond": [
        1,
        13
      ],
      "fragment": "F1",
      "backbone": true,
      "suspended_anchor_atom": null,
      "suspended_reason": null,
      "source_label": "F1/fragments[0]",
      "marker_id": "14",
      "side": "right",
      "connection_group": ">1",
      "marker_type_index": 4
    }
  ]
}
