
     RDKit          2D

  0  0  0  0  0  0  0  0  0  0999 V3000
M  V30 BEGIN CTAB
M  V30 COUNTS 26 25 1 0 0
M  V30 BEGIN ATOM
M  V30 1 H -9.959478 0.051400 0.000000 0
M  V30 2 H 9.958964 -0.448600 0.000000 0
M  V30 3 N -9.093437 -0.448600 0.000000 0
M  V30 4 C -8.227396 0.051400 0.000000 0
M  V30 5 C -7.361118 -0.448600 0.000000 0
M  V30 6 C -6.495077 0.051400 0.000000 0
M  V30 7 C -5.629115 -0.448600 0.000000 0
M  V30 8 C -4.763189 0.051400 0.000000 0
M  V30 9 C -3.897227 -0.448600 0.000000 0
M  V30 10 C -3.031186 0.051400 0.000000 0
M  V30 11 C -2.165108 -0.448600 0.000000 0
M  V30 12 C -1.299067 0.051400 0.000000 0
M  V30 13 C -0.432989 -0.448600 0.000000 0
M  V30 14 N 0.433052 0.051400 0.000000 0
M  V30 15 C 1.299015 -0.448600 0.000000 0
M  V30 16 O 1.299024 -1.448602 0.000000 0
M  V30 17 C 2.164940 0.051400 0.000000 0
M  V30 18 C 3.031103 -0.448600 0.000000 0
M  V30 19 C 3.897144 0.051400 0.000000 0
M  V30 20 C 4.763222 -0.448600 0.000000 0
M  V30 21 C 5.629263 0.051400 0.000000 0
M  V30 22 C 6.495225 -0.448600 0.000000 0
M  V30 23 C 7.361151 0.051400 0.000000 0
M  V30 24 C 8.227113 -0.448600 0.000000 0
M  V30 25 C 9.093038 0.051400 0.000000 0
M  V30 26 O 9.093029 1.051402 0.000000 0
M  V30 END ATOM
M  V30 BEGIN BOND
M  V30 1 1 3 4
M  V30 2 1 4 5
M  V30 3 1 5 6
M  V30 4 1 6 7
M  V30 5 1 7 8
M  V30 6 1 8 9
M  V30 7 1 9 10
M  V30 8 1 10 11
M  V30 9 1 11 12
M  V30 10 1 12 13
M  V30 11 1 13 14
M  V30 12 1 14 15
M  V30 13 2 15 16
M  V30 14 1 15 17
M  V30 15 1 17 18
M  V30 16 1 18 19
M  V30 17 1 19 20
M  V30 18 1 20 21
M  V30 19 1 21 22
M  V30 20 1 22 23
M  V30 21 1 23 24
M  V30 22 1 24 25
M  V30 23 2 25 26
M  V30 24 1 1 3
M  V30 25 1 2 25
M  V30 END BOND
M  V30 BEGIN SGROUP
M  V30 1 SRU 0 ATOMS=(4 1 2 3 25) CBONDS=(2 24 25) -
M  V30 BRKXYZ=(9 -9.5265 0.3014 0 -9.5265 -0.6986 0 0 0 0) BRKXYZ=(9 9.5260 0.-
M  V30 3014 0 9.5260 -0.6986 0 0 0 0)
M  V30 END SGROUP
M  V30 END CTAB
M  END
>  <BIGSMILES_BRACKET_RECORDS_JSON>
{
  "records": [
    {
      "id": 0,
      "bracket_kind": "backbone",
      "pairing_id": "F1/mergedFragments[0]",
      "group_id": "<1:3",
      "ru_midpoint": [
        -0.00010136919485126406,
        -0.19860000000000286
      ],
      "bond_midpoint": [
        -9.526457918357265,
        -0.19859999999999994
      ],
      "orientation_vector": [
        0.0,
        1.0
      ],
      "half_bracket_size": 0.5000009984575867,
      "bond": [
        0,
        2
      ],
      "fragment": "F1",
      "backbone": true,
      "suspended_anchor_atom": null,
      "suspended_reason": null,
      "source_label": "F1/mergedFragments[0]",
      "marker_id": "0",
      "side": "left",
      "connection_group": "<1",
      "marker_type_index": 3
    },
    {
      "id": 1,
      "bracket_kind": "backbone",
      "pairing_id": "F1/mergedFragments[0]",
      "group_id": ">1:4",
      "ru_midpoint": [
        -0.00010136919485126406,
        -0.19860000000000286
      ],
      "bond_midpoint": [
        9.526001115847306,
        -0.19859999999999978
      ],
      "orientation_vector": [
        0.0,
        1.0
      ],
      "half_bracket_size": 0.5000009984575867,
      "bond": [
        1,
        24
      ],
      "fragment": "F1",
      "backbone": true,
      "suspended_anchor_atom": null,
      "suspended_reason": null,
      "source_label": "F1/mergedFragments[0]",
      "marker_id": "25",
      "side": "right",
      "connection_group": ">1",
      "marker_type_index": 4
    }
  ]
}
