
     RDKit          2D

  0  0  0  0  0  0  0  0  0  0999 V3000
M  V30 BEGIN CTAB
M  V30 COUNTS 21 22 1 0 0
M  V30 BEGIN ATOM
M  V30 1 C -4.492350 -0.222603 0.000000 0
M  V30 2 C -3.626346 0.277298 0.000000 0
M  V30 3 C -2.760349 -0.222603 0.000000 0
M  V30 4 C -2.760349 -1.222603 0.000000 0
M  V30 5 C -0.162372 0.277447 0.000000 0
M  V30 6 C 0.703748 -0.222454 0.000000 0
M  V30 7 C 1.703748 -0.222454 0.000000 0
M  V30 8 C 2.203761 0.643595 0.000000 0
M  V30 9 C 3.203788 0.643595 0.000000 0
M  V30 10 C 3.703801 -0.222454 0.000000 0
M  V30 11 C 3.203788 -1.088502 0.000000 0
M  V30 12 C 2.203761 -1.088502 0.000000 0
M  V30 13 C 0.703748 0.777547 0.000000 0
M  V30 14 C -1.894327 0.277404 0.000000 0
M  V30 15 C -1.028368 -0.222604 0.000000 0
M  V30 16 C -1.028368 -1.222606 0.000000 0
M  V30 17 C -1.894570 -1.722539 0.000000 0
M  V30 18 C -1.894370 -2.722541 0.000000 0
M  V30 19 C -1.028568 -3.222610 0.000000 0
M  V30 20 C -0.162367 -2.722677 0.000000 0
M  V30 21 C -0.162567 -1.722675 0.000000 0
M  V30 END ATOM
M  V30 BEGIN BOND
M  V30 1 1 1 2
M  V30 2 1 2 3
M  V30 3 1 3 4
M  V30 4 1 5 6
M  V30 5 1 6 7
M  V30 6 2 7 8
M  V30 7 1 8 9
M  V30 8 2 9 10
M  V30 9 1 10 11
M  V30 10 2 11 12
M  V30 11 1 6 13
M  V30 12 1 12 7
M  V30 13 1 14 15
M  V30 14 1 15 16
M  V30 15 2 16 17
M  V30 16 1 17 18
M  V30 17 2 18 19
M  V30 18 1 19 20
M  V30 19 2 20 21
M  V30 20 1 21 16
M  V30 21 1 3 14
M  V30 22 1 5 15
M  V30 END BOND
M  V30 BEGIN SGROUP
M  V30 1 SRU 0 ATOMS=(4 3 5 14 15) CBONDS=(2 21 22) -
M  V30 BRKXYZ=(9 -2.3273 0.5274 0 -2.3273 -0.4726 0 0 0 0) BRKXYZ=(9 -0.5954 0-
M  V30 .5274 0 -0.5954 -0.4726 0 0 0 0)
M  V30 END SGROUP
M  V30 END CTAB
M  END
>  <BIGSMILES_BRACKET_RECORDS_JSON>
{
  "records": [
    {
      "id": 0,
      "bracket_kind": "backbone",
      "pairing_id": "F1/fragments[0]",
      "group_id": "$a:2",
      "ru_midpoint": [
        -1.461373399890174,
        0.027399999999999647
      ],
      "bond_midpoint": [
        -2.327338439489835,
        0.027400500005558215
      ],
      "orientation_vector": [
        0.0,
        1.0
      ],
      "half_bracket_size": 0.5000070589092322,
      "bond": [
        2,
        13
      ],
      "fragment": "F1",
      "backbone": true,
      "suspended_anchor_atom": null,
      "suspended_reason": null,
      "source_label": "F1/fragments[0]",
      "marker_id": "0",
      "side": "left",
      "connection_group": "$a",
      "marker_type_index": 2
    },
    {
      "id": 1,
      "bracket_kind": "backbone",
      "pairing_id": "F1/fragments[0]",
      "group_id": "$a:2",
      "ru_midpoint": [
        -1.461373399890174,
        0.027399999999999647
      ],
      "bond_midpoint": [
        -0.5953701595536673,
        0.027421558092457388
      ],
      "orientation_vector": [
        0.0,
        1.0
      ],
      "half_bracket_size": 0.5000070589092322,
      "bond": [
        4,
        14
      ],
      "fragment": "F1",
      "backbone": true,
      "suspended_anchor_atom": null,
      "suspended_reason": null,
      "source_label": "F1/fragments[0]",
      "marker_id": "9",
      "side": "right",
      "connection_group": "$a",
      "marker_type_index": 2
    }
  ]
}
