
     RDKit          2D

  0  0  0  0  0  0  0  0  0  0999 V3000
M  V30 BEGIN CTAB
M  V30 COUNTS 12 12 1 0 0
M  V30 BEGIN ATOM
M  V30 1 H -2.165253 0.051406 0.000000 0
M  V30 2 H 2.164831 -0.448594 0.000000 0
M  V30 3 C -1.299227 -0.448594 0.000000 0
M  V30 4 C -0.433223 0.051394 0.000000 0
M  V30 5 C 0.432781 -0.448594 0.000000 0
M  V30 6 O 0.432781 -1.448569 0.000000 0
M  V30 7 C -0.433223 -1.948556 0.000000 0
M  V30 8 O -1.299227 -1.448569 0.000000 0
M  V30 9 C -0.433223 -2.948549 0.000000 0
M  V30 10 C -1.299355 -3.448451 0.000000 0
M  V30 11 C -1.299295 -4.448477 0.000000 0
M  V30 12 C 1.298806 0.051406 0.000000 0
M  V30 END ATOM
M  V30 BEGIN BOND
M  V30 1 1 3 4
M  V30 2 1 4 5
M  V30 3 1 5 6
M  V30 4 1 6 7
M  V30 5 1 7 8
M  V30 6 1 7 9
M  V30 7 1 9 10
M  V30 8 1 10 11
M  V30 9 1 5 12
M  V30 10 1 8 3
M  V30 11 1 1 3
M  V30 12 1 2 12
M  V30 END BOND
M  V30 BEGIN SGROUP
M  V30 1 SRU 0 ATOMS=(4 1 2 3 12) CBONDS=(2 11 12) -
M  V30 BRKXYZ=(9 -1.7322 1.8014 0 -1.7322 -2.1986 0 0 0 0) BRKXYZ=(9 1.7318 1.-
M  V30 8014 0 1.7318 -2.1986 0 0 0 0)
M  V30 END SGROUP
M  V30 END CTAB
M  END
>  <BIGSMILES_BRACKET_RECORDS_JSON>
{
  "records": [
    {
      "id": 0,
      "bracket_kind": "backbone",
      "pairing_id": "F1/fragments[0]",
      "group_id": "<1:3",
      "ru_midpoint": [
        -0.14454812244452642,
        -0.6708089171802185
      ],
      "bond_midpoint": [
        -1.7322400106775695,
        -0.19859351508410794
      ],
      "orientation_vector": [
        0.0,
        1.0
      ],
      "half_bracket_size": 1.9999628245166035,
      "bond": [
        0,
        2
      ],
      "fragment": "F1",
      "backbone": true,
      "suspended_anchor_atom": null,
      "suspended_reason": null,
      "source_label": "F1/fragments[0]",
      "marker_id": "0",
      "side": "left",
      "connection_group": "<1",
      "marker_type_index": 3
    },
    {
      "id": 1,
      "bracket_kind": "backbone",
      "pairing_id": "F1/fragments[0]",
      "group_id": ">1:4",
      "ru_midpoint": [
        -0.14454812244452642,
        -0.6708089171802185
      ],
      "bond_midpoint": [
        1.7318186779094928,
        -0.1985935150841085
      ],
      "orientation_vector": [
        0.0,
        1.0
      ],
      "half_bracket_size": 1.9999628245166035,
      "bond": [
        1,
        11
      ],
      "fragment": "F1",
      "backbone": true,
      "suspended_anchor_atom": null,
      "suspended_reason": null,
      "source_label": "F1/fragments[0]",
      "marker_id": "11",
      "side": "right",
      "connection_group": ">1",
      "marker_type_index": 4
    }
  ]
}
