
     RDKit          2D

  0  0  0  0  0  0  0  0  0  0999 V3000
M  V30 BEGIN CTAB
M  V30 COUNTS 10 9 1 0 0
M  V30 BEGIN ATOM
M  V30 1 H -1.299136 -0.448650 0.000000 0
M  V30 2 H 1.298852 0.051450 0.000000 0
M  V30 3 C -0.433140 0.051450 0.000000 0
M  V30 4 C 0.432856 -0.448650 0.000000 0
M  V30 5 C 0.432856 0.551375 0.000000 0
M  V30 6 C 0.432856 -1.448682 0.000000 0
M  V30 7 O -0.433117 -1.948774 0.000000 0
M  V30 8 O 1.299002 -1.948522 0.000000 0
M  V30 9 C 1.299002 -2.948554 0.000000 0
M  V30 10 C 2.165148 -3.448395 0.000000 0
M  V30 END ATOM
M  V30 BEGIN BOND
M  V30 1 1 3 4
M  V30 2 1 4 5
M  V30 3 1 4 6
M  V30 4 2 6 7
M  V30 5 1 6 8
M  V30 6 1 8 9
M  V30 7 1 9 10
M  V30 8 1 1 3
M  V30 9 1 2 4
M  V30 END BOND
M  V30 BEGIN SGROUP
M  V30 1 SRU 0 ATOMS=(4 1 2 3 4) CBONDS=(2 8 9) -
M  V30 BRKXYZ=(9 -0.8661 0.3015 0 -0.8661 -0.6987 0 0 0 0) BRKXYZ=(9 0.8659 0.-
M  V30 3015 0 0.8659 -0.6987 0 0 0 0)
M  V30 END SGROUP
M  V30 END CTAB
M  END
>  <BIGSMILES_BRACKET_RECORDS_JSON>
{
  "records": [
    {
      "id": 0,
      "bracket_kind": "backbone",
      "pairing_id": "F1/fragments[0]",
      "group_id": "$a:2",
      "ru_midpoint": [
        -0.00015606177114169117,
        -0.19862504137264675
      ],
      "bond_midpoint": [
        -0.8661376581054898,
        -0.19860000000000028
      ],
      "orientation_vector": [
        0.0,
        1.0
      ],
      "half_bracket_size": 0.5001001599500255,
      "bond": [
        0,
        2
      ],
      "fragment": "F1",
      "backbone": true,
      "suspended_anchor_atom": null,
      "suspended_reason": null,
      "source_label": "F1/fragments[0]",
      "marker_id": "0",
      "side": "left",
      "connection_group": "$a",
      "marker_type_index": 2
    },
    {
      "id": 1,
      "bracket_kind": "backbone",
      "pairing_id": "F1/fragments[0]",
      "group_id": "$a:2",
      "ru_midpoint": [
        -0.00015606177114169117,
        -0.19862504137264675
      ],
      "bond_midpoint": [
        0.8658544319664689,
        -0.19860000000000028
      ],
      "orientation_vector": [
        0.0,
        1.0
      ],
      "half_bracket_size": 0.5001001599500255,
      "bond": [
        1,
        3
      ],
      "fragment": "F1",
      "backbone": true,
      "suspended_anchor_atom": null,
      "suspended_reason": null,
      "source_label": "F1/fragments[0]",
      "marker_id": "9",
      "side": "right",
      "connection_group": "$a",
      "marker_type_index": 2
    }
  ]
}
