
     RDKit          2D

  0  0  0  0  0  0  0  0  0  0999 V3000
M  V30 BEGIN CTAB
M  V30 COUNTS 21 22 1 0 0
M  V30 BEGIN ATOM
M  V30 1 H -2.165192 -0.448601 0.000000 0
M  V30 2 H 2.164782 0.051401 0.000000 0
M  V30 3 C -1.299203 0.051401 0.000000 0
M  V30 4 C -0.433214 -0.448601 0.000000 0
M  V30 5 C 0.432804 0.051401 0.000000 0
M  V30 6 Si 1.298793 -0.448601 0.000000 0 VAL=4
M  V30 7 C 1.298793 0.551368 0.000000 0
M  V30 8 C 2.164653 1.051262 0.000000 0
M  V30 9 C 2.164826 2.051332 0.000000 0
M  V30 10 C 1.298793 2.551307 0.000000 0
M  V30 11 C 0.432760 2.051313 0.000000 0
M  V30 12 C 0.432760 1.051344 0.000000 0
M  V30 13 C 1.298793 -1.448605 0.000000 0
M  V30 14 C 0.432589 -1.948632 0.000000 0
M  V30 15 C 0.432789 -2.948636 0.000000 0
M  V30 16 C 1.298793 -3.448613 0.000000 0
M  V30 17 N 1.298793 -4.448617 0.000000 0
M  V30 18 C 0.432789 -4.948643 0.000000 0
M  V30 19 C 2.164796 -4.948594 0.000000 0
M  V30 20 C 2.164796 -2.948586 0.000000 0
M  V30 21 C 2.164796 -1.948582 0.000000 0
M  V30 END ATOM
M  V30 BEGIN BOND
M  V30 1 1 3 4
M  V30 2 1 4 5
M  V30 3 1 5 6
M  V30 4 1 6 7
M  V30 5 2 7 8
M  V30 6 1 8 9
M  V30 7 2 9 10
M  V30 8 1 10 11
M  V30 9 2 11 12
M  V30 10 1 6 13
M  V30 11 2 13 14
M  V30 12 1 14 15
M  V30 13 2 15 16
M  V30 14 1 16 17
M  V30 15 1 17 18
M  V30 16 1 17 19
M  V30 17 1 16 20
M  V30 18 2 20 21
M  V30 19 1 12 7
M  V30 20 1 21 13
M  V30 21 1 1 3
M  V30 22 1 2 6
M  V30 END BOND
M  V30 BEGIN SGROUP
M  V30 1 SRU 0 ATOMS=(4 1 2 3 6) CBONDS=(2 21 22) -
M  V30 BRKXYZ=(9 -1.7322 0.3014 0 -1.7322 -0.6986 0 0 0 0) BRKXYZ=(9 1.7318 0.-
M  V30 3014 0 1.7318 -0.6986 0 0 0 0)
M  V30 END SGROUP
M  V30 END CTAB
M  END
>  <BIGSMILES_BRACKET_RECORDS_JSON>
{
  "records": [
    {
      "id": 0,
      "bracket_kind": "backbone",
      "pairing_id": "F1/fragments[0]",
      "group_id": "<1:3",
      "ru_midpoint": [
        -0.00020454664448488202,
        -0.19859758498394142
      ],
      "bond_midpoint": [
        -1.7321973440036111,
        -0.1986000000000001
      ],
      "orientation_vector": [
        0.0,
        1.0
      ],
      "half_bracket_size": 0.5000019597911358,
      "bond": [
        0,
        2
      ],
      "fragment": "F1",
      "backbone": true,
      "suspended_anchor_atom": null,
      "suspended_reason": null,
      "source_label": "F1/fragments[0]",
      "marker_id": "0",
      "side": "left",
      "connection_group": "<1",
      "marker_type_index": 3
    },
    {
      "id": 1,
      "bracket_kind": "backbone",
      "pairing_id": "F1/fragments[0]",
      "group_id": ">1:4",
      "ru_midpoint": [
        -0.00020454664448488202,
        -0.19859758498394142
      ],
      "bond_midpoint": [
        1.73178732120784,
        -0.1986000000000001
      ],
      "orientation_vector": [
        0.0,
        1.0
      ],
      "half_bracket_size": 0.5000019597911358,
      "bond": [
        1,
        5
      ],
      "fragment": "F1",
      "backbone": true,
      "suspended_anchor_atom": null,
      "suspended_reason": null,
      "source_label": "F1/fragments[0]",
      "marker_id": "20",
      "side": "right",
      "connection_group": ">1",
      "marker_type_index": 4
    }
  ]
}
