
     RDKit          2D

  0  0  0  0  0  0  0  0  0  0999 V3000
M  V30 BEGIN CTAB
M  V30 COUNTS 20 21 1 0 0
M  V30 BEGIN ATOM
M  V30 1 H -4.598170 0.484446 0.000000 0
M  V30 2 H 4.731755 -0.515655 0.000000 0
M  V30 3 O -3.732154 -0.015457 0.000000 0
M  V30 4 C -2.866138 0.484446 0.000000 0
M  V30 5 C -2.000143 -0.015457 0.000000 0
M  V30 6 O -1.134127 0.484446 0.000000 0
M  V30 7 C -0.268132 -0.015457 0.000000 0
M  V30 8 O -0.526940 -0.981393 0.000000 0
M  V30 9 C 0.731868 -0.015499 0.000000 0
M  V30 10 C 1.231809 -0.881588 0.000000 0
M  V30 11 C 0.731806 -1.747620 0.000000 0
M  V30 12 C 1.231748 -2.613709 0.000000 0
M  V30 13 C 2.231791 -2.613593 0.000000 0
M  V30 14 C 2.731793 -1.747562 0.000000 0
M  V30 15 C 2.231752 -0.881646 0.000000 0
M  V30 16 C 2.731755 -0.015614 0.000000 0
M  V30 17 C 2.231814 0.850475 0.000000 0
M  V30 18 C 1.231771 0.850359 0.000000 0
M  V30 19 C 3.731755 -0.015655 0.000000 0
M  V30 20 O 3.990594 0.950065 0.000000 0
M  V30 END ATOM
M  V30 BEGIN BOND
M  V30 1 1 3 4
M  V30 2 1 4 5
M  V30 3 1 5 6
M  V30 4 1 6 7
M  V30 5 2 7 8
M  V30 6 1 7 9
M  V30 7 2 9 10
M  V30 8 1 10 11
M  V30 9 2 11 12
M  V30 10 1 12 13
M  V30 11 2 13 14
M  V30 12 1 14 15
M  V30 13 2 15 16
M  V30 14 1 16 17
M  V30 15 2 17 18
M  V30 16 1 16 19
M  V30 17 2 19 20
M  V30 18 1 18 9
M  V30 19 1 15 10
M  V30 20 1 1 3
M  V30 21 1 2 19
M  V30 END BOND
M  V30 BEGIN SGROUP
M  V30 1 SRU 0 ATOMS=(4 1 2 3 19) CBONDS=(2 20 21) -
M  V30 BRKXYZ=(9 -4.1652 3.6987 0 -4.1652 -3.2297 0 0 0 0) BRKXYZ=(9 4.2318 3.-
M  V30 1985 0 4.2318 -3.7298 0 0 0 0)
M  V30 END SGROUP
M  V30 END CTAB
M  END
>  <BIGSMILES_BRACKET_RECORDS_JSON>
{
  "records": [
    {
      "id": 0,
      "bracket_kind": "backbone",
      "pairing_id": "F1/mergedFragments[0]",
      "group_id": "<1:3",
      "ru_midpoint": [
        0.6808183580704823,
        -0.4411544776324453
      ],
      "bond_midpoint": [
        -4.1651624590141125,
        0.2344942824650611
      ],
      "orientation_vector": [
        0.0,
        1.0
      ],
      "half_bracket_size": 3.4641838206289295,
      "bond": [
        0,
        2
      ],
      "fragment": "F1",
      "backbone": true,
      "suspended_anchor_atom": null,
      "suspended_reason": null,
      "source_label": "F1/mergedFragments[0]",
      "marker_id": "0",
      "side": "left",
      "connection_group": "<1",
      "marker_type_index": 3
    },
    {
      "id": 1,
      "bracket_kind": "backbone",
      "pairing_id": "F1/mergedFragments[0]",
      "group_id": ">1:4",
      "ru_midpoint": [
        0.6808183580704823,
        -0.4411544776324453
      ],
      "bond_midpoint": [
        4.231754840280492,
        -0.26565541525151876
      ],
      "orientation_vector": [
        0.0,
        1.0
      ],
      "half_bracket_size": 3.4641838206289295,
      "bond": [
        1,
        18
      ],
      "fragment": "F1",
      "backbone": true,
      "suspended_anchor_atom": null,
      "suspended_reason": null,
      "source_label": "F1/mergedFragments[0]",
      "marker_id": "19",
      "side": "right",
      "connection_group": ">1",
      "marker_type_index": 4
    }
  ]
}
