
     RDKit          2D

  0  0  0  0  0  0  0  0  0  0999 V3000
M  V30 BEGIN CTAB
M  V30 COUNTS 11 10 1 0 0
M  V30 BEGIN ATOM
M  V30 1 H -1.299247 -0.448550 0.000000 0
M  V30 2 H 1.298741 0.051350 0.000000 0
M  V30 3 C -0.433251 0.051350 0.000000 0
M  V30 4 C 0.432745 -0.448550 0.000000 0
M  V30 5 C 0.432745 -1.448482 0.000000 0
M  V30 6 O -0.433314 -1.948424 0.000000 0
M  V30 7 O 1.298805 -1.948472 0.000000 0
M  V30 8 C 1.298631 -2.948504 0.000000 0
M  V30 9 C 2.164691 -3.448494 0.000000 0
M  V30 10 C 2.164518 -4.448526 0.000000 0
M  V30 11 Cl 0.432745 0.551382 0.000000 0
M  V30 END ATOM
M  V30 BEGIN BOND
M  V30 1 1 3 4
M  V30 2 1 4 5
M  V30 3 2 5 6
M  V30 4 1 5 7
M  V30 5 1 7 8
M  V30 6 1 8 9
M  V30 7 1 9 10
M  V30 8 1 4 11
M  V30 9 1 1 3
M  V30 10 1 2 4
M  V30 END BOND
M  V30 BEGIN SGROUP
M  V30 1 SRU 0 ATOMS=(4 1 2 3 4) CBONDS=(2 9 10) -
M  V30 BRKXYZ=(9 -0.8662 0.3013 0 -0.8662 -0.6985 0 0 0 0) BRKXYZ=(9 0.8657 0.-
M  V30 3013 0 0.8657 -0.6985 0 0 0 0)
M  V30 END SGROUP
M  V30 END CTAB
M  END
>  <BIGSMILES_BRACKET_RECORDS_JSON>
{
  "records": [
    {
      "id": 0,
      "bracket_kind": "backbone",
      "pairing_id": "F1/fragments[0]",
      "group_id": "$a:2",
      "ru_midpoint": [
        -0.00023961177443088122,
        -0.19857680311956677
      ],
      "bond_midpoint": [
        -0.8662492169714218,
        -0.19860000000000017
      ],
      "orientation_vector": [
        0.0,
        1.0
      ],
      "half_bracket_size": 0.4999001600153623,
      "bond": [
        0,
        2
      ],
      "fragment": "F1",
      "backbone": true,
      "suspended_anchor_atom": null,
      "suspended_reason": null,
      "source_label": "F1/fragments[0]",
      "marker_id": "0",
      "side": "left",
      "connection_group": "$a",
      "marker_type_index": 2
    },
    {
      "id": 1,
      "bracket_kind": "backbone",
      "pairing_id": "F1/fragments[0]",
      "group_id": "$a:2",
      "ru_midpoint": [
        -0.00023961177443088122,
        -0.19857680311956677
      ],
      "bond_midpoint": [
        0.8657431964260678,
        -0.19860000000000017
      ],
      "orientation_vector": [
        0.0,
        1.0
      ],
      "half_bracket_size": 0.4999001600153623,
      "bond": [
        1,
        3
      ],
      "fragment": "F1",
      "backbone": true,
      "suspended_anchor_atom": null,
      "suspended_reason": null,
      "source_label": "F1/fragments[0]",
      "marker_id": "10",
      "side": "right",
      "connection_group": "$a",
      "marker_type_index": 2
    }
  ]
}
