
     RDKit          2D

  0  0  0  0  0  0  0  0  0  0999 V3000
M  V30 BEGIN CTAB
M  V30 COUNTS 7 6 3 0 0
M  V30 BEGIN ATOM
M  V30 1 H -2.165369 -0.581822 0.000000 0
M  V30 2 H 2.164750 -0.081862 0.000000 0
M  V30 3 C -1.299327 -0.081850 0.000000 0
M  V30 4 C -0.433270 -0.581823 0.000000 0
M  V30 5 C -0.433270 -1.581825 0.000000 0
M  V30 6 C 0.432771 -0.081850 0.000000 0
M  V30 7 C 1.298776 -0.581950 0.000000 0
M  V30 END ATOM
M  V30 BEGIN BOND
M  V30 1 1 3 4
M  V30 2 1 4 5
M  V30 3 1 6 7
M  V30 4 1 4 6
M  V30 5 1 1 3
M  V30 6 1 2 7
M  V30 END BOND
M  V30 BEGIN SGROUP
M  V30 1 SRU 0 ATOMS=(4 1 3 4 6) CBONDS=(2 4 5) -
M  V30 BRKXYZ=(9 -1.7323 0.1683 0 -1.7323 -0.8319 0 0 0 0) BRKXYZ=(9 -0.0002 0-
M  V30 .1683 0 -0.0002 -0.8319 0 0 0 0)
M  V30 2 SRU 0 ATOMS=(4 2 4 6 7) CBONDS=(2 4 6) -
M  V30 BRKXYZ=(9 -0.0002 0.1683 0 -0.0002 -0.8319 0 0 0 0) BRKXYZ=(9 1.7318 0.-
M  V30 1682 0 1.7318 -0.8320 0 0 0 0)
M  V30 3 SRU 0 ATOMS=(4 1 2 3 7) CBONDS=(2 5 6) -
M  V30 BRKXYZ=(9 -1.7323 1.1681 0 -1.7323 -1.8318 0 0 0 0) BRKXYZ=(9 1.7318 1.-
M  V30 1681 0 1.7318 -1.8319 0 0 0 0)
M  V30 END SGROUP
M  V30 END CTAB
M  END
>  <BIGSMILES_BRACKET_RECORDS_JSON>
{
  "records": [
    {
      "id": 0,
      "bracket_kind": "backbone",
      "pairing_id": "F1/fragments[0]",
      "group_id": "$a:2",
      "ru_midpoint": [
        -0.8662859248439614,
        -0.3318364496376043
      ],
      "bond_midpoint": [
        -1.732347960501393,
        -0.3318359496660449
      ],
      "orientation_vector": [
        0.0,
        1.0
      ],
      "half_bracket_size": 0.5001001599500253,
      "bond": [
        0,
        2
      ],
      "fragment": "F1",
      "backbone": true,
      "suspended_anchor_atom": null,
      "suspended_reason": null,
      "source_label": "F1/fragments[0]",
      "marker_id": "0",
      "side": "left",
      "connection_group": "$a",
      "marker_type_index": 2
    },
    {
      "id": 1,
      "bracket_kind": "backbone",
      "pairing_id": "F1/fragments[0]",
      "group_id": "$a:2",
      "ru_midpoint": [
        -0.8662859248439614,
        -0.3318364496376043
      ],
      "bond_midpoint": [
        -0.00024945295990974614,
        -0.33183644963760417
      ],
      "orientation_vector": [
        0.0,
        1.0
      ],
      "half_bracket_size": 0.5001001599500253,
      "bond": [
        3,
        5
      ],
      "fragment": "F1",
      "backbone": true,
      "suspended_anchor_atom": null,
      "suspended_reason": null,
      "source_label": "F1/fragments[0]",
      "marker_id": "4",
      "side": "right",
      "connection_group": "$a",
      "marker_type_index": 2
    },
    {
      "id": 2,
      "bracket_kind": "backbone",
      "pairing_id": "F1/fragments[1]",
      "group_id": "$a:2",
      "ru_midpoint": [
        0.865773286176629,
        -0.3319000000000003
      ],
      "bond_midpoint": [
        -0.00024945295990974614,
        -0.33183644963760417
      ],
      "orientation_vector": [
        0.0,
        1.0
      ],
      "half_bracket_size": 0.5001001599500253,
      "bond": [
        3,
        5
      ],
      "fragment": "F1",
      "backbone": true,
      "suspended_anchor_atom": null,
      "suspended_reason": null,
      "source_label": "F1/fragments[1]",
      "marker_id": "0",
      "side": "left",
      "connection_group": "$a",
      "marker_type_index": 2
    },
    {
      "id": 3,
      "bracket_kind": "backbone",
      "pairing_id": "F1/fragments[1]",
      "group_id": "$a:2",
      "ru_midpoint": [
        0.865773286176629,
        -0.3319000000000003
      ],
      "bond_midpoint": [
        1.7317628917502315,
        -0.33190616600689243
      ],
      "orientation_vector": [
        0.0,
        1.0
      ],
      "half_bracket_size": 0.5001001599500253,
      "bond": [
        1,
        6
      ],
      "fragment": "F1",
      "backbone": true,
      "suspended_anchor_atom": null,
      "suspended_reason": null,
      "source_label": "F1/fragments[1]",
      "marker_id": "3",
      "side": "right",
      "connection_group": "$a",
      "marker_type_index": 2
    },
    {
      "id": 4,
      "bracket_kind": "backbone",
      "pairing_id": "F1/connected",
      "group_id": "$overall",
      "ru_midpoint": [
        -0.00027490347181879926,
        -0.3318576330917362
      ],
      "bond_midpoint": [
        -1.732347960501393,
        -0.3318359496660449
      ],
      "orientation_vector": [
        0.0,
        1.0
      ],
      "half_bracket_size": 1.4999750592232333,
      "bond": [
        0,
        2
      ],
      "fragment": "F1",
      "backbone": true,
      "suspended_anchor_atom": null,
      "suspended_reason": null,
      "source_label": "F1/connected",
      "marker_id": "connected-overall-left",
      "side": "left",
      "connection_group": "$overall",
      "marker_type_index": null
    },
    {
      "id": 5,
      "bracket_kind": "backbone",
      "pairing_id": "F1/connected",
      "group_id": "$overall",
      "ru_midpoint": [
        -0.00027490347181879926,
        -0.3318576330917362
      ],
      "bond_midpoint": [
        1.7317628917502315,
        -0.33190616600689243
      ],
      "orientation_vector": [
        0.0,
        1.0
      ],
      "half_bracket_size": 1.4999750592232333,
      "bond": [
        1,
        6
      ],
      "fragment": "F1",
      "backbone": true,
      "suspended_anchor_atom": null,
      "suspended_reason": null,
      "source_label": "F1/connected",
      "marker_id": "connected-overall-right",
      "side": "right",
      "connection_group": "$overall",
      "marker_type_index": null
    }
  ]
}
