
     RDKit          2D

  0  0  0  0  0  0  0  0  0  0999 V3000
M  V30 BEGIN CTAB
M  V30 COUNTS 25 26 1 0 0
M  V30 BEGIN ATOM
M  V30 1 H -7.464100 -0.340787 0.000000 0
M  V30 2 H 7.463636 -0.340803 0.000000 0
M  V30 3 C -6.598096 0.159113 0.000000 0
M  V30 4 O -6.598098 1.159114 0.000000 0
M  V30 5 N -5.732091 -0.340787 0.000000 0
M  V30 6 C -4.732091 -0.340787 0.000000 0
M  V30 7 C -4.232107 0.525212 0.000000 0
M  V30 8 C -3.232138 0.525212 0.000000 0
M  V30 9 C -2.732153 -0.340787 0.000000 0
M  V30 10 C -3.232138 -1.206785 0.000000 0
M  V30 11 C -4.232107 -1.206785 0.000000 0
M  V30 12 C -1.732153 -0.340787 0.000000 0
M  V30 13 C -0.732153 -0.340787 0.000000 0
M  V30 14 C -0.232144 0.525255 0.000000 0
M  V30 15 C 0.767875 0.525255 0.000000 0
M  V30 16 C 1.267885 -0.340787 0.000000 0
M  V30 17 C 0.767875 -1.206829 0.000000 0
M  V30 18 C -0.232144 -1.206829 0.000000 0
M  V30 19 N 2.267885 -0.340787 0.000000 0
M  V30 20 C 3.133881 0.159313 0.000000 0
M  V30 21 O 3.133879 1.159314 0.000000 0
M  V30 22 O 3.999885 -0.340787 0.000000 0
M  V30 23 C 4.865862 0.159297 0.000000 0
M  V30 24 C 5.731858 -0.340803 0.000000 0
M  V30 25 O 6.597747 0.159297 0.000000 0
M  V30 END ATOM
M  V30 BEGIN BOND
M  V30 1 2 3 4
M  V30 2 1 3 5
M  V30 3 1 5 6
M  V30 4 2 6 7
M  V30 5 1 7 8
M  V30 6 2 8 9
M  V30 7 1 9 10
M  V30 8 2 10 11
M  V30 9 1 9 12
M  V30 10 1 12 13
M  V30 11 2 13 14
M  V30 12 1 14 15
M  V30 13 2 15 16
M  V30 14 1 16 17
M  V30 15 2 17 18
M  V30 16 1 16 19
M  V30 17 1 19 20
M  V30 18 2 20 21
M  V30 19 1 20 22
M  V30 20 1 11 6
M  V30 21 1 18 13
M  V30 22 1 23 24
M  V30 23 1 24 25
M  V30 24 1 22 23
M  V30 25 1 1 3
M  V30 26 1 2 25
M  V30 END BOND
M  V30 BEGIN SGROUP
M  V30 1 SRU 0 ATOMS=(4 2 22 23 25) CBONDS=(2 24 26) -
M  V30 BRKXYZ=(9 4.4329 -0.5908 0 4.4329 0.4094 0 0 0 0) BRKXYZ=(9 7.0307 -0.5-
M  V30 909 0 7.0307 0.4093 0 0 0 0)
M  V30 END SGROUP
M  V30 END CTAB
M  END
>  <BIGSMILES_BRACKET_RECORDS_JSON>
{
  "records": [
    {
      "id": 0,
      "bracket_kind": "backbone",
      "pairing_id": "F2/fragments[0]",
      "group_id": "<1:3",
      "ru_midpoint": [
        5.731762051340214,
        -0.14074379305135448
      ],
      "bond_midpoint": [
        4.432873711088659,
        -0.09074458172519398
      ],
      "orientation_vector": [
        0.0,
        -1.0
      ],
      "half_bracket_size": 0.5001001599500253,
      "bond": [
        21,
        22
      ],
      "fragment": "F2",
      "backbone": true,
      "suspended_anchor_atom": null,
      "suspended_reason": null,
      "source_label": "F2/fragments[0]",
      "marker_id": "0",
      "side": "left",
      "connection_group": "<1",
      "marker_type_index": 3
    },
    {
      "id": 1,
      "bracket_kind": "backbone",
      "pairing_id": "F2/fragments[0]",
      "group_id": ">1:4",
      "ru_midpoint": [
        5.731762051340214,
        -0.14074379305135448
      ],
      "bond_midpoint": [
        7.030691478952775,
        -0.09075258294369684
      ],
      "orientation_vector": [
        0.0,
        -1.0
      ],
      "half_bracket_size": 0.5001001599500253,
      "bond": [
        1,
        24
      ],
      "fragment": "F2",
      "backbone": true,
      "suspended_anchor_atom": null,
      "suspended_reason": null,
      "source_label": "F2/fragments[0]",
      "marker_id": "4",
      "side": "right",
      "connection_group": ">1",
      "marker_type_index": 4
    }
  ]
}
