
     RDKit          2D

  0  0  0  0  0  0  0  0  0  0999 V3000
M  V30 BEGIN CTAB
M  V30 COUNTS 7 6 1 0 0
M  V30 BEGIN ATOM
M  V30 1 H -1.299523 -0.448651 0.000000 0
M  V30 2 H 1.299138 0.051451 0.000000 0
M  V30 3 C -0.433302 0.051451 0.000000 0
M  V30 4 C 0.432918 -0.448651 0.000000 0
M  V30 5 C 0.432918 -1.448665 0.000000 0
M  V30 6 O 1.298909 -1.948728 0.000000 0
M  V30 7 O -0.433247 -1.948516 0.000000 0
M  V30 END ATOM
M  V30 BEGIN BOND
M  V30 1 1 3 4
M  V30 2 1 4 5
M  V30 3 2 5 6
M  V30 4 1 5 7
M  V30 5 1 1 3
M  V30 6 1 2 4
M  V30 END BOND
M  V30 BEGIN SGROUP
M  V30 1 SRU 0 ATOMS=(4 1 2 3 4) CBONDS=(2 5 6) -
M  V30 BRKXYZ=(9 -0.8664 0.3015 0 -0.8664 -0.6987 0 0 0 0) BRKXYZ=(9 0.8660 0.-
M  V30 3015 0 0.8660 -0.6987 0 0 0 0)
M  V30 END SGROUP
M  V30 END CTAB
M  END
>  <BIGSMILES_BRACKET_RECORDS_JSON>
{
  "records": [
    {
      "id": 0,
      "bracket_kind": "backbone",
      "pairing_id": "F1/fragments[0]",
      "group_id": "$a:2",
      "ru_midpoint": [
        -0.00019418510265523103,
        -0.1986030305399678
      ],
      "bond_midpoint": [
        -0.8664124972621962,
        -0.1986
      ],
      "orientation_vector": [
        0.0,
        1.0
      ],
      "half_bracket_size": 0.5001011957426217,
      "bond": [
        0,
        2
      ],
      "fragment": "F1",
      "backbone": true,
      "suspended_anchor_atom": null,
      "suspended_reason": null,
      "source_label": "F1/fragments[0]",
      "marker_id": "0",
      "side": "left",
      "connection_group": "$a",
      "marker_type_index": 2
    },
    {
      "id": 1,
      "bracket_kind": "backbone",
      "pairing_id": "F1/fragments[0]",
      "group_id": "$a:2",
      "ru_midpoint": [
        -0.00019418510265523103,
        -0.1986030305399678
      ],
      "bond_midpoint": [
        0.8660276246661779,
        -0.1986
      ],
      "orientation_vector": [
        0.0,
        1.0
      ],
      "half_bracket_size": 0.5001011957426217,
      "bond": [
        1,
        3
      ],
      "fragment": "F1",
      "backbone": true,
      "suspended_anchor_atom": null,
      "suspended_reason": null,
      "source_label": "F1/fragments[0]",
      "marker_id": "6",
      "side": "right",
      "connection_group": "$a",
      "marker_type_index": 2
    }
  ]
}
