
     RDKit          2D

  0  0  0  0  0  0  0  0  0  0999 V3000
M  V30 BEGIN CTAB
M  V30 COUNTS 24 24 1 0 0
M  V30 BEGIN ATOM
M  V30 1 H -8.061601 -0.381549 0.000000 0
M  V30 2 H 8.061202 -0.381549 0.000000 0
M  V30 3 N -7.195597 0.118351 0.000000 0
M  V30 4 C -6.329592 -0.381549 0.000000 0
M  V30 5 C -5.329592 -0.381549 0.000000 0
M  V30 6 C -4.829608 0.484449 0.000000 0
M  V30 7 C -3.829639 0.484449 0.000000 0
M  V30 8 C -3.329654 -0.381549 0.000000 0
M  V30 9 C -3.829639 -1.247548 0.000000 0
M  V30 10 C -4.829608 -1.247548 0.000000 0
M  V30 11 C -2.329654 -0.381549 0.000000 0
M  V30 12 N -1.463650 -0.881649 0.000000 0
M  V30 13 C -0.597654 -0.381549 0.000000 0
M  V30 14 O -0.597627 0.618451 0.000000 0
M  V30 15 C 0.268235 -0.881649 0.000000 0
M  V30 16 C 1.134116 -0.381549 0.000000 0
M  V30 17 C 2.000005 -0.881649 0.000000 0
M  V30 18 C 2.865885 -0.381549 0.000000 0
M  V30 19 C 3.731774 -0.881649 0.000000 0
M  V30 20 C 4.597655 -0.381549 0.000000 0
M  V30 21 C 5.463544 -0.881649 0.000000 0
M  V30 22 C 6.329425 -0.381549 0.000000 0
M  V30 23 C 7.195313 -0.881649 0.000000 0
M  V30 24 O 7.195315 -1.881650 0.000000 0
M  V30 END ATOM
M  V30 BEGIN BOND
M  V30 1 1 3 4
M  V30 2 1 4 5
M  V30 3 2 5 6
M  V30 4 1 6 7
M  V30 5 2 7 8
M  V30 6 1 8 9
M  V30 7 2 9 10
M  V30 8 1 8 11
M  V30 9 1 11 12
M  V30 10 1 12 13
M  V30 11 2 13 14
M  V30 12 1 13 15
M  V30 13 1 15 16
M  V30 14 1 16 17
M  V30 15 1 17 18
M  V30 16 1 18 19
M  V30 17 1 19 20
M  V30 18 1 20 21
M  V30 19 1 21 22
M  V30 20 1 22 23
M  V30 21 2 23 24
M  V30 22 1 10 5
M  V30 23 1 1 3
M  V30 24 1 2 23
M  V30 END BOND
M  V30 BEGIN SGROUP
M  V30 1 SRU 0 ATOMS=(4 1 2 3 23) CBONDS=(2 23 24) -
M  V30 BRKXYZ=(9 -7.6286 1.6004 0 -7.6286 -1.8636 0 0 0 0) BRKXYZ=(9 7.6283 1.-
M  V30 1004 0 7.6283 -2.3636 0 0 0 0)
M  V30 END SGROUP
M  V30 END CTAB
M  END
>  <BIGSMILES_BRACKET_RECORDS_JSON>
{
  "records": [
    {
      "id": 0,
      "bracket_kind": "backbone",
      "pairing_id": "F1/mergedFragments[0]",
      "group_id": "<1:3",
      "ru_midpoint": [
        -0.4685607095716726,
        -0.4952174125062983
      ],
      "bond_midpoint": [
        -7.628598954866975,
        -0.13159910681028109
      ],
      "orientation_vector": [
        0.0,
        1.0
      ],
      "half_bracket_size": 1.7319970671718994,
      "bond": [
        0,
        2
      ],
      "fragment": "F1",
      "backbone": true,
      "suspended_anchor_atom": null,
      "suspended_reason": null,
      "source_label": "F1/mergedFragments[0]",
      "marker_id": "0",
      "side": "left",
      "connection_group": "<1",
      "marker_type_index": 3
    },
    {
      "id": 1,
      "bracket_kind": "backbone",
      "pairing_id": "F1/mergedFragments[0]",
      "group_id": ">1:4",
      "ru_midpoint": [
        -0.4685607095716726,
        -0.4952174125062983
      ],
      "bond_midpoint": [
        7.628257827873114,
        -0.6315992667929745
      ],
      "orientation_vector": [
        0.0,
        1.0
      ],
      "half_bracket_size": 1.7319970671718994,
      "bond": [
        1,
        22
      ],
      "fragment": "F1",
      "backbone": true,
      "suspended_anchor_atom": null,
      "suspended_reason": null,
      "source_label": "F1/mergedFragments[0]",
      "marker_id": "23",
      "side": "right",
      "connection_group": ">1",
      "marker_type_index": 4
    }
  ]
}
