
     RDKit          2D

  0  0  0  0  0  0  0  0  0  0999 V3000
M  V30 BEGIN CTAB
M  V30 COUNTS 31 31 1 0 0
M  V30 BEGIN ATOM
M  V30 1 H -3.470917 0.051319 0.000000 0
M  V30 2 H 3.474157 0.051319 0.000000 0
M  V30 3 C -2.608872 -0.448484 0.000000 0
M  V30 4 F -2.608872 0.551430 0.000000 0
M  V30 5 F -2.608872 -1.447886 0.000000 0
M  V30 6 C -1.746828 0.051319 0.000000 0
M  V30 7 F -1.746828 1.043121 0.000000 0
M  V30 8 F -1.746828 -0.948485 0.000000 0
M  V30 9 C -0.867403 -0.448484 0.000000 0
M  V30 10 F -0.867403 0.552106 0.000000 0
M  V30 11 F -0.867403 -1.448443 0.000000 0
M  V30 12 C 0.009491 0.051319 0.000000 0
M  V30 13 F 0.009491 1.042526 0.000000 0
M  V30 14 F 0.009491 -0.948759 0.000000 0
M  V30 15 C 0.875516 -0.448681 0.000000 0
M  V30 16 N 1.741824 0.051481 0.000000 0
M  V30 17 C 2.608131 -0.448681 0.000000 0
M  V30 18 N 2.608131 -1.449007 0.000000 0
M  V30 19 C 1.741824 -1.949170 0.000000 0
M  V30 20 N 0.875516 -1.449007 0.000000 0
M  V30 21 C 1.741824 -2.948992 0.000000 0
M  V30 22 F 0.741955 -2.948100 0.000000 0
M  V30 23 F 1.241197 -3.814569 0.000000 0
M  V30 24 C 2.607475 -3.449346 0.000000 0
M  V30 25 F 3.108102 -2.583770 0.000000 0
M  V30 26 F 3.607518 -3.450139 0.000000 0
M  V30 27 O 2.606682 -4.449389 0.000000 0
M  V30 28 C 3.472259 -4.950016 0.000000 0
M  V30 29 F 2.971732 -5.815766 0.000000 0
M  V30 30 F 3.971675 -5.816386 0.000000 0
M  V30 31 F 4.338629 -4.450600 0.000000 0
M  V30 END ATOM
M  V30 BEGIN BOND
M  V30 1 1 3 4
M  V30 2 1 3 5
M  V30 3 1 3 6
M  V30 4 1 6 7
M  V30 5 1 6 8
M  V30 6 1 6 9
M  V30 7 1 9 10
M  V30 8 1 9 11
M  V30 9 1 9 12
M  V30 10 1 12 13
M  V30 11 1 12 14
M  V30 12 1 12 15
M  V30 13 2 15 16
M  V30 14 1 16 17
M  V30 15 2 17 18
M  V30 16 1 18 19
M  V30 17 2 19 20
M  V30 18 1 19 21
M  V30 19 1 21 22
M  V30 20 1 21 23
M  V30 21 1 21 24
M  V30 22 1 24 25
M  V30 23 1 24 26
M  V30 24 1 24 27
M  V30 25 1 27 28
M  V30 26 1 28 29
M  V30 27 1 28 30
M  V30 28 1 28 31
M  V30 29 1 20 15
M  V30 30 1 1 3
M  V30 31 1 2 17
M  V30 END BOND
M  V30 BEGIN SGROUP
M  V30 1 SRU 0 ATOMS=(4 1 2 3 17) CBONDS=(2 30 31) -
M  V30 BRKXYZ=(9 -3.0399 1.8021 0 -3.0399 -2.1992 0 0 0 0) BRKXYZ=(9 3.0411 1.-
M  V30 8020 0 3.0411 -2.1993 0 0 0 0)
M  V30 END SGROUP
M  V30 END CTAB
M  END
>  <BIGSMILES_BRACKET_RECORDS_JSON>
{
  "records": [
    {
      "id": 0,
      "bracket_kind": "backbone",
      "pairing_id": "F1/fragments[0]",
      "group_id": "<1:3",
      "ru_midpoint": [
        0.43840143844433643,
        -0.5321620531807053
      ],
      "bond_midpoint": [
        -3.039894618971262,
        -0.1985827339355849
      ],
      "orientation_vector": [
        0.0,
        1.0
      ],
      "half_bracket_size": 2.000651627413286,
      "bond": [
        0,
        2
      ],
      "fragment": "F1",
      "backbone": true,
      "suspended_anchor_atom": null,
      "suspended_reason": null,
      "source_label": "F1/fragments[0]",
      "marker_id": "0",
      "side": "left",
      "connection_group": "<1",
      "marker_type_index": 3
    },
    {
      "id": 1,
      "bracket_kind": "backbone",
      "pairing_id": "F1/fragments[0]",
      "group_id": ">1:4",
      "ru_midpoint": [
        0.43840143844433643,
        -0.5321620531807053
      ],
      "bond_midpoint": [
        3.0411441585468397,
        -0.19868145342665972
      ],
      "orientation_vector": [
        0.0,
        1.0
      ],
      "half_bracket_size": 2.000651627413286,
      "bond": [
        1,
        16
      ],
      "fragment": "F1",
      "backbone": true,
      "suspended_anchor_atom": null,
      "suspended_reason": null,
      "source_label": "F1/fragments[0]",
      "marker_id": "30",
      "side": "right",
      "connection_group": ">1",
      "marker_type_index": 4
    }
  ]
}
