
     RDKit          2D

  0  0  0  0  0  0  0  0  0  0999 V3000
M  V30 BEGIN CTAB
M  V30 COUNTS 14 14 3 0 0
M  V30 BEGIN ATOM
M  V30 1 H -3.031138 -0.448604 0.000000 0
M  V30 2 H 3.030811 0.051404 0.000000 0
M  V30 3 C -2.165178 0.051404 0.000000 0
M  V30 4 C -1.299219 -0.448604 0.000000 0
M  V30 5 C -1.299219 -1.448606 0.000000 0
M  V30 6 C -2.165421 -1.948539 0.000000 0
M  V30 7 C -2.165221 -2.948541 0.000000 0
M  V30 8 C -1.299419 -3.448610 0.000000 0
M  V30 9 C -0.433217 -2.948677 0.000000 0
M  V30 10 C -0.433417 -1.948675 0.000000 0
M  V30 11 C -0.433198 0.051404 0.000000 0
M  V30 12 C 0.432806 -0.448497 0.000000 0
M  V30 13 C 1.298803 0.051404 0.000000 0
M  V30 14 C 2.164807 -0.448497 0.000000 0
M  V30 END ATOM
M  V30 BEGIN BOND
M  V30 1 1 3 4
M  V30 2 1 4 5
M  V30 3 2 5 6
M  V30 4 1 6 7
M  V30 5 2 7 8
M  V30 6 1 8 9
M  V30 7 2 9 10
M  V30 8 1 10 5
M  V30 9 1 11 12
M  V30 10 2 12 13
M  V30 11 1 13 14
M  V30 12 1 4 11
M  V30 13 1 1 3
M  V30 14 1 2 14
M  V30 END BOND
M  V30 BEGIN SGROUP
M  V30 1 SRU 0 ATOMS=(4 1 3 4 11) CBONDS=(2 12 13) -
M  V30 BRKXYZ=(9 -2.5982 0.3014 0 -2.5982 -0.6986 0 0 0 0) BRKXYZ=(9 -0.8662 0-
M  V30 .3014 0 -0.8662 -0.6986 0 0 0 0)
M  V30 2 SRU 0 ATOMS=(4 2 4 11 14) CBONDS=(2 12 14) -
M  V30 BRKXYZ=(9 -0.8662 0.3014 0 -0.8662 -0.6986 0 0 0 0) BRKXYZ=(9 2.5978 0.-
M  V30 3015 0 2.5978 -0.6986 0 0 0 0)
M  V30 3 SRU 0 ATOMS=(4 1 2 3 14) CBONDS=(2 13 14) -
M  V30 BRKXYZ=(9 -2.5982 3.3014 0 -2.5982 -3.6986 0 0 0 0) BRKXYZ=(9 2.5978 3.-
M  V30 3015 0 2.5978 -3.6986 0 0 0 0)
M  V30 END SGROUP
M  V30 END CTAB
M  END
>  <BIGSMILES_BRACKET_RECORDS_JSON>
{
  "records": [
    {
      "id": 0,
      "bracket_kind": "backbone",
      "pairing_id": "F1/fragments[0]",
      "group_id": "$a:2",
      "ru_midpoint": [
        -1.7321929161860838,
        -0.1986005000055588
      ],
      "bond_midpoint": [
        -2.5981579557857444,
        -0.1986000000000001
      ],
      "orientation_vector": [
        0.0,
        1.0
      ],
      "half_bracket_size": 0.5000070589092322,
      "bond": [
        0,
        2
      ],
      "fragment": "F1",
      "backbone": true,
      "suspended_anchor_atom": null,
      "suspended_reason": null,
      "source_label": "F1/fragments[0]",
      "marker_id": "0",
      "side": "left",
      "connection_group": "$a",
      "marker_type_index": 2
    },
    {
      "id": 1,
      "bracket_kind": "backbone",
      "pairing_id": "F1/fragments[0]",
      "group_id": "$a:2",
      "ru_midpoint": [
        -1.7321929161860838,
        -0.1986005000055588
      ],
      "bond_midpoint": [
        -0.8662086259090105,
        -0.1986000000000001
      ],
      "orientation_vector": [
        0.0,
        1.0
      ],
      "half_bracket_size": 0.5000070589092322,
      "bond": [
        3,
        10
      ],
      "fragment": "F1",
      "backbone": true,
      "suspended_anchor_atom": null,
      "suspended_reason": null,
      "source_label": "F1/fragments[0]",
      "marker_id": "9",
      "side": "right",
      "connection_group": "$a",
      "marker_type_index": 2
    },
    {
      "id": 2,
      "bracket_kind": "backbone",
      "pairing_id": "F1/fragments[1]",
      "group_id": "$a:2",
      "ru_midpoint": [
        0.8657760117832298,
        -0.19856534891956407
      ],
      "bond_midpoint": [
        -0.8662086259090105,
        -0.1986000000000001
      ],
      "orientation_vector": [
        0.0,
        1.0
      ],
      "half_bracket_size": 0.5000070589092322,
      "bond": [
        3,
        10
      ],
      "fragment": "F1",
      "backbone": true,
      "suspended_anchor_atom": null,
      "suspended_reason": null,
      "source_label": "F1/fragments[1]",
      "marker_id": "0",
      "side": "left",
      "connection_group": "$a",
      "marker_type_index": 2
    },
    {
      "id": 3,
      "bracket_kind": "backbone",
      "pairing_id": "F1/fragments[1]",
      "group_id": "$a:2",
      "ru_midpoint": [
        0.8657760117832298,
        -0.19856534891956407
      ],
      "bond_midpoint": [
        2.597809142733763,
        -0.19854655055306458
      ],
      "orientation_vector": [
        0.0,
        1.0
      ],
      "half_bracket_size": 0.5000070589092322,
      "bond": [
        1,
        13
      ],
      "fragment": "F1",
      "backbone": true,
      "suspended_anchor_atom": null,
      "suspended_reason": null,
      "source_label": "F1/fragments[1]",
      "marker_id": "5",
      "side": "right",
      "connection_group": "$a",
      "marker_type_index": 2
    },
    {
      "id": 4,
      "bracket_kind": "backbone",
      "pairing_id": "F1/connected",
      "group_id": "$overall",
      "ru_midpoint": [
        -0.000194410857374816,
        -0.1985925736485905
      ],
      "bond_midpoint": [
        -2.5981579557857444,
        -0.1986000000000001
      ],
      "orientation_vector": [
        0.0,
        1.0
      ],
      "half_bracket_size": 3.5000134589024325,
      "bond": [
        0,
        2
      ],
      "fragment": "F1",
      "backbone": true,
      "suspended_anchor_atom": null,
      "suspended_reason": null,
      "source_label": "F1/connected",
      "marker_id": "connected-overall-left",
      "side": "left",
      "connection_group": "$overall",
      "marker_type_index": null
    },
    {
      "id": 5,
      "bracket_kind": "backbone",
      "pairing_id": "F1/connected",
      "group_id": "$overall",
      "ru_midpoint": [
        -0.000194410857374816,
        -0.1985925736485905
      ],
      "bond_midpoint": [
        2.597809142733763,
        -0.19854655055306458
      ],
      "orientation_vector": [
        0.0,
        1.0
      ],
      "half_bracket_size": 3.5000134589024325,
      "bond": [
        1,
        13
      ],
      "fragment": "F1",
      "backbone": true,
      "suspended_anchor_atom": null,
      "suspended_reason": null,
      "source_label": "F1/connected",
      "marker_id": "connected-overall-right",
      "side": "right",
      "connection_group": "$overall",
      "marker_type_index": null
    }
  ]
}
