
     RDKit          2D

  0  0  0  0  0  0  0  0  0  0999 V3000
M  V30 BEGIN CTAB
M  V30 COUNTS 10 10 1 0 0
M  V30 BEGIN ATOM
M  V30 1 H -0.866327 0.051360 0.000000 0
M  V30 2 H 0.865792 0.051360 0.000000 0
M  V30 3 Si -0.000267 -0.448581 0.000000 0 VAL=4
M  V30 4 C -0.000267 0.551536 0.000000 0
M  V30 5 C -0.000267 -1.448507 0.000000 0
M  V30 6 C -0.866170 -1.948606 0.000000 0
M  V30 7 C -0.865997 -2.948632 0.000000 0
M  V30 8 C -0.000094 -3.448458 0.000000 0
M  V30 9 C 0.865981 -2.948459 0.000000 0
M  V30 10 C 0.865808 -1.948433 0.000000 0
M  V30 END ATOM
M  V30 BEGIN BOND
M  V30 1 1 3 4
M  V30 2 1 3 5
M  V30 3 2 5 6
M  V30 4 1 6 7
M  V30 5 2 7 8
M  V30 6 1 8 9
M  V30 7 2 9 10
M  V30 8 1 10 5
M  V30 9 1 1 3
M  V30 10 1 2 3
M  V30 END BOND
M  V30 BEGIN SGROUP
M  V30 1 SRU 0 ATOMS=(3 1 2 3) CBONDS=(2 9 10) -
M  V30 BRKXYZ=(9 -0.4333 0.3014 0 -0.4333 -0.6986 0 0 0 0) BRKXYZ=(9 0.4328 0.-
M  V30 3014 0 0.4328 -0.6986 0 0 0 0)
M  V30 END SGROUP
M  V30 END CTAB
M  END
>  <BIGSMILES_BRACKET_RECORDS_JSON>
{
  "records": [
    {
      "id": 0,
      "bracket_kind": "backbone",
      "pairing_id": "F1/fragments[0]",
      "group_id": "$a:2",
      "ru_midpoint": [
        -0.0002390385350224955,
        -0.1153022894375437
      ],
      "bond_midpoint": [
        -0.43329700452010345,
        -0.19861072850795727
      ],
      "orientation_vector": [
        0.0,
        1.0
      ],
      "half_bracket_size": 0.4999626586056203,
      "bond": [
        0,
        2
      ],
      "fragment": "F1",
      "backbone": true,
      "suspended_anchor_atom": null,
      "suspended_reason": null,
      "source_label": "F1/fragments[0]",
      "marker_id": "0",
      "side": "left",
      "connection_group": "$a",
      "marker_type_index": 2
    },
    {
      "id": 1,
      "bracket_kind": "backbone",
      "pairing_id": "F1/fragments[0]",
      "group_id": "$a:2",
      "ru_midpoint": [
        -0.0002390385350224955,
        -0.1153022894375437
      ],
      "bond_midpoint": [
        0.4327623438810564,
        -0.19861072850795727
      ],
      "orientation_vector": [
        0.0,
        1.0
      ],
      "half_bracket_size": 0.4999626586056203,
      "bond": [
        1,
        2
      ],
      "fragment": "F1",
      "backbone": true,
      "suspended_anchor_atom": null,
      "suspended_reason": null,
      "source_label": "F1/fragments[0]",
      "marker_id": "9",
      "side": "right",
      "connection_group": "$a",
      "marker_type_index": 2
    }
  ]
}
