
     RDKit          2D

  0  0  0  0  0  0  0  0  0  0999 V3000
M  V30 BEGIN CTAB
M  V30 COUNTS 12 12 1 0 0
M  V30 BEGIN ATOM
M  V30 1 H -1.299371 -0.448647 0.000000 0
M  V30 2 H 1.298958 0.051447 0.000000 0
M  V30 3 C -0.433261 0.051447 0.000000 0
M  V30 4 C 0.432848 -0.448647 0.000000 0
M  V30 5 C 0.432848 -1.448449 0.000000 0
M  V30 6 C -0.433153 -1.948582 0.000000 0
M  V30 7 C -0.433153 -2.948584 0.000000 0
M  V30 8 C -1.299154 -3.448517 0.000000 0
M  V30 9 O -1.299154 -4.448519 0.000000 0
M  V30 10 C 0.432849 -3.448653 0.000000 0
M  V30 11 C 1.299051 -2.948519 0.000000 0
M  V30 12 C 1.298850 -1.948517 0.000000 0
M  V30 END ATOM
M  V30 BEGIN BOND
M  V30 1 1 3 4
M  V30 2 1 4 5
M  V30 3 2 5 6
M  V30 4 1 6 7
M  V30 5 1 7 8
M  V30 6 1 8 9
M  V30 7 2 7 10
M  V30 8 1 10 11
M  V30 9 2 11 12
M  V30 10 1 12 5
M  V30 11 1 1 3
M  V30 12 1 2 4
M  V30 END BOND
M  V30 BEGIN SGROUP
M  V30 1 SRU 0 ATOMS=(4 1 2 3 4) CBONDS=(2 11 12) -
M  V30 BRKXYZ=(9 -0.8663 0.3015 0 -0.8663 -0.6987 0 0 0 0) BRKXYZ=(9 0.8659 0.-
M  V30 3015 0 0.8659 -0.6987 0 0 0 0)
M  V30 END SGROUP
M  V30 END CTAB
M  END
>  <BIGSMILES_BRACKET_RECORDS_JSON>
{
  "records": [
    {
      "id": 0,
      "bracket_kind": "backbone",
      "pairing_id": "F1/fragments[0]",
      "group_id": "$a:2",
      "ru_midpoint": [
        -0.00020468317760002908,
        -0.19859696950632427
      ],
      "bond_midpoint": [
        -0.8663158446329974,
        -0.1986000000000001
      ],
      "orientation_vector": [
        0.0,
        1.0
      ],
      "half_bracket_size": 0.5000935566421099,
      "bond": [
        0,
        2
      ],
      "fragment": "F1",
      "backbone": true,
      "suspended_anchor_atom": null,
      "suspended_reason": null,
      "source_label": "F1/fragments[0]",
      "marker_id": "0",
      "side": "left",
      "connection_group": "$a",
      "marker_type_index": 2
    },
    {
      "id": 1,
      "bracket_kind": "backbone",
      "pairing_id": "F1/fragments[0]",
      "group_id": "$a:2",
      "ru_midpoint": [
        -0.00020468317760002908,
        -0.19859696950632427
      ],
      "bond_midpoint": [
        0.86590298057939,
        -0.1986000000000001
      ],
      "orientation_vector": [
        0.0,
        1.0
      ],
      "half_bracket_size": 0.5000935566421099,
      "bond": [
        1,
        3
      ],
      "fragment": "F1",
      "backbone": true,
      "suspended_anchor_atom": null,
      "suspended_reason": null,
      "source_label": "F1/fragments[0]",
      "marker_id": "11",
      "side": "right",
      "connection_group": "$a",
      "marker_type_index": 2
    }
  ]
}
