
     RDKit          2D

  0  0  0  0  0  0  0  0  0  0999 V3000
M  V30 BEGIN CTAB
M  V30 COUNTS 30 29 1 0 0
M  V30 BEGIN ATOM
M  V30 1 H -1.299068 -0.448601 0.000000 0
M  V30 2 H 1.298898 0.051401 0.000000 0
M  V30 3 N -0.433079 0.051401 0.000000 0
M  V30 4 P 0.432909 -0.448601 0.000000 0
M  V30 5 O 0.432909 0.551368 0.000000 0
M  V30 6 C -0.433124 1.051363 0.000000 0
M  V30 7 C -0.433124 2.051332 0.000000 0
M  V30 8 O -1.299157 2.551327 0.000000 0
M  V30 9 C -1.299157 3.551296 0.000000 0
M  V30 10 C -2.165190 4.051290 0.000000 0
M  V30 11 O -2.165190 5.051260 0.000000 0
M  V30 12 C -3.031223 5.551254 0.000000 0
M  V30 13 O -3.897256 5.051279 0.000000 0
M  V30 14 C -3.031223 6.551224 0.000000 0
M  V30 15 C -2.531229 7.417257 0.000000 0
M  V30 16 C -3.897256 7.051218 0.000000 0
M  V30 17 Br -2.031254 6.551224 0.000000 0
M  V30 18 O 0.432909 -1.448571 0.000000 0
M  V30 19 C -0.432951 -1.948646 0.000000 0
M  V30 20 C -0.432951 -2.948616 0.000000 0
M  V30 21 O -1.298984 -3.448591 0.000000 0
M  V30 22 C -1.298984 -4.448560 0.000000 0
M  V30 23 C -2.165017 -4.948535 0.000000 0
M  V30 24 O -2.165017 -5.948505 0.000000 0
M  V30 25 C -3.031050 -6.448480 0.000000 0
M  V30 26 O -3.897083 -5.948485 0.000000 0
M  V30 27 C -3.031050 -7.448449 0.000000 0
M  V30 28 C -2.531075 -8.314482 0.000000 0
M  V30 29 C -3.897083 -7.948424 0.000000 0
M  V30 30 Br -2.031081 -7.448449 0.000000 0
M  V30 END ATOM
M  V30 BEGIN BOND
M  V30 1 2 3 4
M  V30 2 1 4 5
M  V30 3 1 5 6
M  V30 4 1 6 7
M  V30 5 1 7 8
M  V30 6 1 8 9
M  V30 7 1 9 10
M  V30 8 1 10 11
M  V30 9 1 11 12
M  V30 10 2 12 13
M  V30 11 1 12 14
M  V30 12 1 14 15
M  V30 13 1 14 16
M  V30 14 1 14 17
M  V30 15 1 4 18
M  V30 16 1 18 19
M  V30 17 1 19 20
M  V30 18 1 20 21
M  V30 19 1 21 22
M  V30 20 1 22 23
M  V30 21 1 23 24
M  V30 22 1 24 25
M  V30 23 2 25 26
M  V30 24 1 25 27
M  V30 25 1 27 28
M  V30 26 1 27 29
M  V30 27 1 27 30
M  V30 28 1 1 3
M  V30 29 1 2 4
M  V30 END BOND
M  V30 BEGIN SGROUP
M  V30 1 SRU 0 ATOMS=(4 1 2 3 4) CBONDS=(2 28 29) -
M  V30 BRKXYZ=(9 -0.8661 0.3014 0 -0.8661 -0.6986 0 0 0 0) BRKXYZ=(9 0.8659 0.-
M  V30 3014 0 0.8659 -0.6986 0 0 0 0)
M  V30 END SGROUP
M  V30 END CTAB
M  END
>  <BIGSMILES_BRACKET_RECORDS_JSON>
{
  "records": [
    {
      "id": 0,
      "bracket_kind": "backbone",
      "pairing_id": "F1/fragments[0]",
      "group_id": "<1:3",
      "ru_midpoint": [
        -0.00011358111931702997,
        -0.198649565020688
      ],
      "bond_midpoint": [
        -0.8660738029087929,
        -0.19860000000000033
      ],
      "orientation_vector": [
        0.0,
        1.0
      ],
      "half_bracket_size": 0.5000022368897254,
      "bond": [
        0,
        2
      ],
      "fragment": "F1",
      "backbone": true,
      "suspended_anchor_atom": null,
      "suspended_reason": null,
      "source_label": "F1/fragments[0]",
      "marker_id": "0",
      "side": "left",
      "connection_group": "<1",
      "marker_type_index": 3
    },
    {
      "id": 1,
      "bracket_kind": "backbone",
      "pairing_id": "F1/fragments[0]",
      "group_id": ">1:4",
      "ru_midpoint": [
        -0.00011358111931702997,
        -0.198649565020688
      ],
      "bond_midpoint": [
        0.8659038910645114,
        -0.19860000000000033
      ],
      "orientation_vector": [
        0.0,
        1.0
      ],
      "half_bracket_size": 0.5000022368897254,
      "bond": [
        1,
        3
      ],
      "fragment": "F1",
      "backbone": true,
      "suspended_anchor_atom": null,
      "suspended_reason": null,
      "source_label": "F1/fragments[0]",
      "marker_id": "29",
      "side": "right",
      "connection_group": ">1",
      "marker_type_index": 4
    }
  ]
}
