
     RDKit          2D

  0  0  0  0  0  0  0  0  0  0999 V3000
M  V30 BEGIN CTAB
M  V30 COUNTS 12 12 1 0 0
M  V30 BEGIN ATOM
M  V30 1 H -1.299096 -0.448652 0.000000 0
M  V30 2 H 1.298950 0.051452 0.000000 0
M  V30 3 C -0.433080 0.051452 0.000000 0
M  V30 4 C 0.432935 -0.448652 0.000000 0
M  V30 5 C 0.432935 -1.448678 0.000000 0
M  V30 6 C 1.299097 -1.948527 0.000000 0
M  V30 7 C 1.299097 -2.948553 0.000000 0
M  V30 8 Cl 2.165086 -3.448503 0.000000 0
M  V30 9 C 0.433108 -3.448629 0.000000 0
M  V30 10 Cl 0.433281 -4.448554 0.000000 0
M  V30 11 C -0.433054 -2.948779 0.000000 0
M  V30 12 C -0.433054 -1.948753 0.000000 0
M  V30 END ATOM
M  V30 BEGIN BOND
M  V30 1 1 3 4
M  V30 2 1 4 5
M  V30 3 2 5 6
M  V30 4 1 6 7
M  V30 5 1 7 8
M  V30 6 2 7 9
M  V30 7 1 9 10
M  V30 8 1 9 11
M  V30 9 2 11 12
M  V30 10 1 12 5
M  V30 11 1 1 3
M  V30 12 1 2 4
M  V30 END BOND
M  V30 BEGIN SGROUP
M  V30 1 SRU 0 ATOMS=(4 1 2 3 4) CBONDS=(2 11 12) -
M  V30 BRKXYZ=(9 -0.8661 0.3015 0 -0.8661 -0.6987 0 0 0 0) BRKXYZ=(9 0.8659 0.-
M  V30 3015 0 0.8659 -0.6987 0 0 0 0)
M  V30 END SGROUP
M  V30 END CTAB
M  END
>  <BIGSMILES_BRACKET_RECORDS_JSON>
{
  "records": [
    {
      "id": 0,
      "bracket_kind": "backbone",
      "pairing_id": "F1/fragments[0]",
      "group_id": "$a:2",
      "ru_midpoint": [
        -0.000104375660164302,
        -0.1986548851233108
      ],
      "bond_midpoint": [
        -0.8660880696697358,
        -0.19859999999999994
      ],
      "orientation_vector": [
        0.0,
        1.0
      ],
      "half_bracket_size": 0.5001032392455471,
      "bond": [
        0,
        2
      ],
      "fragment": "F1",
      "backbone": true,
      "suspended_anchor_atom": null,
      "suspended_reason": null,
      "source_label": "F1/fragments[0]",
      "marker_id": "0",
      "side": "left",
      "connection_group": "$a",
      "marker_type_index": 2
    },
    {
      "id": 1,
      "bracket_kind": "backbone",
      "pairing_id": "F1/fragments[0]",
      "group_id": "$a:2",
      "ru_midpoint": [
        -0.000104375660164302,
        -0.1986548851233108
      ],
      "bond_midpoint": [
        0.8659426345570819,
        -0.19859999999999994
      ],
      "orientation_vector": [
        0.0,
        1.0
      ],
      "half_bracket_size": 0.5001032392455471,
      "bond": [
        1,
        3
      ],
      "fragment": "F1",
      "backbone": true,
      "suspended_anchor_atom": null,
      "suspended_reason": null,
      "source_label": "F1/fragments[0]",
      "marker_id": "11",
      "side": "right",
      "connection_group": "$a",
      "marker_type_index": 2
    }
  ]
}
