
     RDKit          2D

  0  0  0  0  0  0  0  0  0  0999 V3000
M  V30 BEGIN CTAB
M  V30 COUNTS 20 21 1 0 0
M  V30 BEGIN ATOM
M  V30 1 H -5.433230 -0.881624 0.000000 0
M  V30 2 H 5.298826 -0.381624 0.000000 0
M  V30 3 O -4.433230 -0.381624 0.000000 0
M  V30 4 C -3.433230 -0.381624 0.000000 0
M  V30 5 C -2.933238 0.484389 0.000000 0
M  V30 6 C -1.933252 0.484389 0.000000 0
M  V30 7 C -1.433259 -0.381624 0.000000 0
M  V30 8 C -1.933252 -1.247637 0.000000 0
M  V30 9 C -2.933238 -1.247637 0.000000 0
M  V30 10 C -0.433259 -0.381624 0.000000 0
M  V30 11 C -0.433259 -1.381624 0.000000 0
M  V30 12 C 0.566741 -0.381624 0.000000 0
M  V30 13 C 1.066725 0.484375 0.000000 0
M  V30 14 C 2.066694 0.484375 0.000000 0
M  V30 15 C 2.566679 -0.381624 0.000000 0
M  V30 16 C 2.066694 -1.247622 0.000000 0
M  V30 17 C 1.066725 -1.247622 0.000000 0
M  V30 18 O 3.566679 -0.381624 0.000000 0
M  V30 19 C 4.432752 -0.881589 0.000000 0
M  V30 20 O 4.432759 -1.881621 0.000000 0
M  V30 END ATOM
M  V30 BEGIN BOND
M  V30 1 1 3 4
M  V30 2 2 4 5
M  V30 3 1 5 6
M  V30 4 2 6 7
M  V30 5 1 7 8
M  V30 6 2 8 9
M  V30 7 1 7 10
M  V30 8 1 10 11
M  V30 9 1 10 12
M  V30 10 2 12 13
M  V30 11 1 13 14
M  V30 12 2 14 15
M  V30 13 1 15 16
M  V30 14 2 16 17
M  V30 15 1 15 18
M  V30 16 1 18 19
M  V30 17 2 19 20
M  V30 18 1 9 4
M  V30 19 1 17 12
M  V30 20 1 1 3
M  V30 21 1 2 19
M  V30 END BOND
M  V30 BEGIN SGROUP
M  V30 1 SRU 0 ATOMS=(4 1 2 3 19) CBONDS=(2 20 21) -
M  V30 BRKXYZ=(9 -4.9332 1.1004 0 -4.9332 -2.3636 0 0 0 0) BRKXYZ=(9 4.8658 1.-
M  V30 1004 0 4.8658 -2.3636 0 0 0 0)
M  V30 END SGROUP
M  V30 END CTAB
M  END
>  <BIGSMILES_BRACKET_RECORDS_JSON>
{
  "records": [
    {
      "id": 0,
      "bracket_kind": "backbone",
      "pairing_id": "F1/mergedFragments[0]",
      "group_id": "<1:3",
      "ru_midpoint": [
        -0.18178786121284074,
        -0.9371752212016045
      ],
      "bond_midpoint": [
        -4.9332303749344995,
        -0.6316235313360699
      ],
      "orientation_vector": [
        0.0,
        1.0
      ],
      "half_bracket_size": 1.7320259830225853,
      "bond": [
        0,
        2
      ],
      "fragment": "F1",
      "backbone": true,
      "suspended_anchor_atom": null,
      "suspended_reason": null,
      "source_label": "F1/mergedFragments[0]",
      "marker_id": "0",
      "side": "left",
      "connection_group": "<1",
      "marker_type_index": 3
    },
    {
      "id": 1,
      "bracket_kind": "backbone",
      "pairing_id": "F1/mergedFragments[0]",
      "group_id": ">1:4",
      "ru_midpoint": [
        -0.18178786121284074,
        -0.9371752212016045
      ],
      "bond_midpoint": [
        4.865789227781979,
        -0.631606495656908
      ],
      "orientation_vector": [
        0.0,
        1.0
      ],
      "half_bracket_size": 1.7320259830225853,
      "bond": [
        1,
        18
      ],
      "fragment": "F1",
      "backbone": true,
      "suspended_anchor_atom": null,
      "suspended_reason": null,
      "source_label": "F1/mergedFragments[0]",
      "marker_id": "19",
      "side": "right",
      "connection_group": ">1",
      "marker_type_index": 4
    }
  ]
}
