
     RDKit          2D

  0  0  0  0  0  0  0  0  0  0999 V3000
M  V30 BEGIN CTAB
M  V30 COUNTS 20 21 1 0 0
M  V30 BEGIN ATOM
M  V30 1 H -4.763308 -0.448694 0.000000 0
M  V30 2 H 4.762933 0.051454 0.000000 0
M  V30 3 N -3.897283 0.051306 0.000000 0
M  V30 4 C -3.031258 -0.448694 0.000000 0
M  V30 5 C -2.165257 0.051291 0.000000 0
M  V30 6 C -1.299257 -0.448694 0.000000 0
M  V30 7 C -1.299257 -1.448665 0.000000 0
M  V30 8 C -2.165257 -1.948650 0.000000 0
M  V30 9 C -3.031258 -1.448665 0.000000 0
M  V30 10 N -0.433232 0.051306 0.000000 0
M  V30 11 C 0.432747 -0.448667 0.000000 0
M  V30 12 O 0.432770 -1.448681 0.000000 0
M  V30 13 C 1.298749 0.051373 0.000000 0
M  V30 14 C 2.164815 -0.448597 0.000000 0
M  V30 15 C 3.030835 0.051454 0.000000 0
M  V30 16 C 3.030789 1.051474 0.000000 0
M  V30 17 C 2.164722 1.551444 0.000000 0
M  V30 18 C 1.298702 1.051394 0.000000 0
M  V30 19 C 3.896884 -0.448506 0.000000 0
M  V30 20 O 3.896907 -1.448420 0.000000 0
M  V30 END ATOM
M  V30 BEGIN BOND
M  V30 1 1 3 4
M  V30 2 2 4 5
M  V30 3 1 5 6
M  V30 4 2 6 7
M  V30 5 1 7 8
M  V30 6 2 8 9
M  V30 7 1 6 10
M  V30 8 1 10 11
M  V30 9 2 11 12
M  V30 10 1 11 13
M  V30 11 2 13 14
M  V30 12 1 14 15
M  V30 13 2 15 16
M  V30 14 1 16 17
M  V30 15 2 17 18
M  V30 16 1 15 19
M  V30 17 2 19 20
M  V30 18 1 9 4
M  V30 19 1 18 13
M  V30 20 1 1 3
M  V30 21 1 2 19
M  V30 END BOND
M  V30 BEGIN SGROUP
M  V30 1 SRU 0 ATOMS=(4 1 2 3 19) CBONDS=(2 20 21) -
M  V30 BRKXYZ=(9 -4.3303 3.3014 0 -4.3303 -3.6988 0 0 0 0) BRKXYZ=(9 4.3299 3.-
M  V30 3016 0 4.3299 -3.6986 0 0 0 0)
M  V30 END SGROUP
M  V30 END CTAB
M  END
>  <BIGSMILES_BRACKET_RECORDS_JSON>
{
  "records": [
    {
      "id": 0,
      "bracket_kind": "backbone",
      "pairing_id": "F1/mergedFragments[0]",
      "group_id": "<1:3",
      "ru_midpoint": [
        -0.00022252444030579355,
        -0.19864755943488266
      ],
      "bond_midpoint": [
        -4.330295614560415,
        -0.1986939390927911
      ],
      "orientation_vector": [
        0.0,
        1.0
      ],
      "half_bracket_size": 3.5000944077019867,
      "bond": [
        0,
        2
      ],
      "fragment": "F1",
      "backbone": true,
      "suspended_anchor_atom": null,
      "suspended_reason": null,
      "source_label": "F1/mergedFragments[0]",
      "marker_id": "0",
      "side": "left",
      "connection_group": "<1",
      "marker_type_index": 3
    },
    {
      "id": 1,
      "bracket_kind": "backbone",
      "pairing_id": "F1/mergedFragments[0]",
      "group_id": ">1:4",
      "ru_midpoint": [
        -0.00022252444030579355,
        -0.19864755943488266
      ],
      "bond_midpoint": [
        4.3299083602735475,
        -0.19852617815193918
      ],
      "orientation_vector": [
        0.0,
        1.0
      ],
      "half_bracket_size": 3.5000944077019867,
      "bond": [
        1,
        18
      ],
      "fragment": "F1",
      "backbone": true,
      "suspended_anchor_atom": null,
      "suspended_reason": null,
      "source_label": "F1/mergedFragments[0]",
      "marker_id": "19",
      "side": "right",
      "connection_group": ">1",
      "marker_type_index": 4
    }
  ]
}
