
     RDKit          2D

  0  0  0  0  0  0  0  0  0  0999 V3000
M  V30 BEGIN CTAB
M  V30 COUNTS 26 30 1 0 0
M  V30 BEGIN ATOM
M  V30 1 H -0.433258 0.551396 0.000000 0
M  V30 2 H 1.566781 -0.948604 0.000000 0
M  V30 3 P -0.433219 -0.448604 0.000000 0 VAL=5
M  V30 4 O 0.467825 -1.171127 0.000000 0
M  V30 5 C 0.690294 -2.145962 0.000000 0
M  V30 6 C 0.066963 -2.927950 0.000000 0
M  V30 7 C -0.932982 -2.928067 0.000000 0
M  V30 8 C -1.556385 -2.146297 0.000000 0
M  V30 9 C -2.545202 -2.295435 0.000000 0
M  V30 10 C -2.910646 -3.226146 0.000000 0
M  V30 11 C -2.287046 -4.007886 0.000000 0
M  V30 12 C -1.298228 -3.858748 0.000000 0
M  V30 13 C -0.674825 -4.640519 0.000000 0
M  V30 14 C -1.040011 -5.571596 0.000000 0
M  V30 15 C -2.028829 -5.720734 0.000000 0
M  V30 16 C -2.652460 -4.938795 0.000000 0
M  V30 17 O -1.334238 -1.171222 0.000000 0
M  V30 18 C 0.432413 -3.858589 0.000000 0
M  V30 19 C 1.421255 -4.007635 0.000000 0
M  V30 20 C 1.786706 -4.938274 0.000000 0
M  V30 21 C 1.163405 -5.720460 0.000000 0
M  V30 22 C 0.174563 -5.571413 0.000000 0
M  V30 23 C -0.190720 -4.640547 0.000000 0
M  V30 24 C 2.044586 -3.225648 0.000000 0
M  V30 25 C 1.679136 -2.295009 0.000000 0
M  V30 26 N 0.566781 -0.448604 0.000000 0
M  V30 END ATOM
M  V30 BEGIN BOND
M  V30 1 1 3 4
M  V30 2 1 4 5
M  V30 3 2 5 6
M  V30 4 1 6 7
M  V30 5 2 7 8
M  V30 6 1 8 9
M  V30 7 2 9 10
M  V30 8 1 10 11
M  V30 9 2 11 12
M  V30 10 1 12 13
M  V30 11 2 13 14
M  V30 12 1 14 15
M  V30 13 2 15 16
M  V30 14 1 8 17
M  V30 15 1 6 18
M  V30 16 2 18 19
M  V30 17 1 19 20
M  V30 18 2 20 21
M  V30 19 1 21 22
M  V30 20 2 22 23
M  V30 21 1 19 24
M  V30 22 2 24 25
M  V30 23 2 3 26
M  V30 24 1 17 3
M  V30 25 1 23 18
M  V30 26 1 25 5
M  V30 27 1 12 7
M  V30 28 1 16 11
M  V30 29 1 1 3
M  V30 30 1 2 26
M  V30 END BOND
M  V30 BEGIN SGROUP
M  V30 1 SRU 0 ATOMS=(4 1 2 3 26) CBONDS=(2 29 30) -
M  V30 BRKXYZ=(9 -0.4332 0.5514 0 -0.4332 -0.4486 0 0 0 0) BRKXYZ=(9 1.0668 -0-
M  V30 .1986 0 1.0668 -1.1986 0 0 0 0)
M  V30 END SGROUP
M  V30 END CTAB
M  END
>  <BIGSMILES_BRACKET_RECORDS_JSON>
{
  "records": [
    {
      "id": 0,
      "bracket_kind": "backbone",
      "pairing_id": "F1/fragments[0]",
      "group_id": "<1:3",
      "ru_midpoint": [
        0.10027794065612083,
        -0.32360206248298473
      ],
      "bond_midpoint": [
        -0.43323870552321675,
        0.05139587465670775
      ],
      "orientation_vector": [
        0.0,
        1.0
      ],
      "half_bracket_size": 0.5000082499319386,
      "bond": [
        0,
        2
      ],
      "fragment": "F1",
      "backbone": true,
      "suspended_anchor_atom": null,
      "suspended_reason": null,
      "source_label": "F1/fragments[0]",
      "marker_id": "0",
      "side": "left",
      "connection_group": "<1",
      "marker_type_index": 3
    },
    {
      "id": 1,
      "bracket_kind": "backbone",
      "pairing_id": "F1/fragments[0]",
      "group_id": ">1:4",
      "ru_midpoint": [
        0.10027794065612083,
        -0.32360206248298473
      ],
      "bond_midpoint": [
        1.0667807192769112,
        -0.6986041249659694
      ],
      "orientation_vector": [
        0.0,
        1.0
      ],
      "half_bracket_size": 0.5000082499319386,
      "bond": [
        1,
        25
      ],
      "fragment": "F1",
      "backbone": true,
      "suspended_anchor_atom": null,
      "suspended_reason": null,
      "source_label": "F1/fragments[0]",
      "marker_id": "25",
      "side": "right",
      "connection_group": ">1",
      "marker_type_index": 4
    }
  ]
}
