
     RDKit          2D

  0  0  0  0  0  0  0  0  0  0999 V3000
M  V30 BEGIN CTAB
M  V30 COUNTS 23 24 1 0 0
M  V30 BEGIN ATOM
M  V30 1 H -5.433284 0.484416 0.000000 0
M  V30 2 H 5.298675 -0.015584 0.000000 0
M  V30 3 O -4.433284 -0.015584 0.000000 0
M  V30 4 C -3.433284 -0.015584 0.000000 0
M  V30 5 C -2.933276 -0.881623 0.000000 0
M  V30 6 Cl -3.433270 -1.747638 0.000000 0
M  V30 7 C -1.933260 -0.881623 0.000000 0
M  V30 8 C -1.433252 -0.015584 0.000000 0
M  V30 9 C -1.933260 0.850456 0.000000 0
M  V30 10 C -2.933276 0.850456 0.000000 0
M  V30 11 C -0.433252 -0.015584 0.000000 0
M  V30 12 C -0.433252 0.984418 0.000000 0
M  V30 13 C -0.433252 -1.015803 0.000000 0
M  V30 14 C 0.566748 -0.015584 0.000000 0
M  V30 15 C 1.066750 -0.881613 0.000000 0
M  V30 16 C 2.066754 -0.881613 0.000000 0
M  V30 17 Cl 2.566775 -1.747674 0.000000 0
M  V30 18 C 2.566756 -0.015584 0.000000 0
M  V30 19 C 2.066754 0.850445 0.000000 0
M  V30 20 C 1.066750 0.850445 0.000000 0
M  V30 21 O 3.566756 -0.015584 0.000000 0
M  V30 22 C 4.432716 0.484423 0.000000 0
M  V30 23 O 4.432699 1.484337 0.000000 0
M  V30 END ATOM
M  V30 BEGIN BOND
M  V30 1 1 3 4
M  V30 2 2 4 5
M  V30 3 1 5 6
M  V30 4 1 5 7
M  V30 5 2 7 8
M  V30 6 1 8 9
M  V30 7 2 9 10
M  V30 8 1 8 11
M  V30 9 1 11 12
M  V30 10 1 11 13
M  V30 11 1 11 14
M  V30 12 2 14 15
M  V30 13 1 15 16
M  V30 14 1 16 17
M  V30 15 2 16 18
M  V30 16 1 18 19
M  V30 17 2 19 20
M  V30 18 1 18 21
M  V30 19 1 21 22
M  V30 20 2 22 23
M  V30 21 1 10 4
M  V30 22 1 20 14
M  V30 23 1 1 3
M  V30 24 1 2 22
M  V30 END BOND
M  V30 BEGIN SGROUP
M  V30 1 SRU 0 ATOMS=(4 1 2 3 22) CBONDS=(2 23 24) -
M  V30 BRKXYZ=(9 -4.9333 1.9665 0 -4.9333 -1.4977 0 0 0 0) BRKXYZ=(9 4.8657 1.-
M  V30 9665 0 4.8657 -1.4977 0 0 0 0)
M  V30 END SGROUP
M  V30 END CTAB
M  END
>  <BIGSMILES_BRACKET_RECORDS_JSON>
{
  "records": [
    {
      "id": 0,
      "bracket_kind": "backbone",
      "pairing_id": "F1/mergedFragments[0]",
      "group_id": "<1:3",
      "ru_midpoint": [
        -0.18182733260051887,
        0.03996615742509829
      ],
      "bond_midpoint": [
        -4.933284134247382,
        0.23441620970241936
      ],
      "orientation_vector": [
        0.0,
        1.0
      ],
      "half_bracket_size": 1.7320789566281416,
      "bond": [
        0,
        2
      ],
      "fragment": "F1",
      "backbone": true,
      "suspended_anchor_atom": null,
      "suspended_reason": null,
      "source_label": "F1/mergedFragments[0]",
      "marker_id": "0",
      "side": "left",
      "connection_group": "<1",
      "marker_type_index": 3
    },
    {
      "id": 1,
      "bracket_kind": "backbone",
      "pairing_id": "F1/mergedFragments[0]",
      "group_id": ">1:4",
      "ru_midpoint": [
        -0.18182733260051887,
        0.03996615742509829
      ],
      "bond_midpoint": [
        4.865695114539443,
        0.2344197391570353
      ],
      "orientation_vector": [
        0.0,
        1.0
      ],
      "half_bracket_size": 1.7320789566281416,
      "bond": [
        1,
        21
      ],
      "fragment": "F1",
      "backbone": true,
      "suspended_anchor_atom": null,
      "suspended_reason": null,
      "source_label": "F1/mergedFragments[0]",
      "marker_id": "22",
      "side": "right",
      "connection_group": ">1",
      "marker_type_index": 4
    }
  ]
}
