
     RDKit          2D

  0  0  0  0  0  0  0  0  0  0999 V3000
M  V30 BEGIN CTAB
M  V30 COUNTS 11 11 1 0 0
M  V30 BEGIN ATOM
M  V30 1 H -3.000171 0.118402 0.000000 0
M  V30 2 H 2.999800 -0.881598 0.000000 0
M  V30 3 O -2.000171 -0.381598 0.000000 0
M  V30 4 C -1.000171 -0.381598 0.000000 0
M  V30 5 C -0.500179 0.484414 0.000000 0
M  V30 6 C 0.499807 0.484414 0.000000 0
M  V30 7 C 0.999800 -0.381598 0.000000 0
M  V30 8 C 0.499807 -1.247611 0.000000 0
M  V30 9 C -0.500179 -1.247611 0.000000 0
M  V30 10 C 1.999800 -0.381598 0.000000 0
M  V30 11 O 2.258601 -1.347458 0.000000 0
M  V30 END ATOM
M  V30 BEGIN BOND
M  V30 1 1 3 4
M  V30 2 2 4 5
M  V30 3 1 5 6
M  V30 4 2 6 7
M  V30 5 1 7 8
M  V30 6 2 8 9
M  V30 7 1 7 10
M  V30 8 2 10 11
M  V30 9 1 9 4
M  V30 10 1 1 3
M  V30 11 1 2 10
M  V30 END BOND
M  V30 BEGIN SGROUP
M  V30 1 SRU 0 ATOMS=(4 1 2 3 10) CBONDS=(2 10 11) -
M  V30 BRKXYZ=(9 -2.5002 1.6004 0 -2.5002 -1.8636 0 0 0 0) BRKXYZ=(9 2.4998 1.-
M  V30 1004 0 2.4998 -2.3636 0 0 0 0)
M  V30 END SGROUP
M  V30 END CTAB
M  END
>  <BIGSMILES_BRACKET_RECORDS_JSON>
{
  "records": [
    {
      "id": 0,
      "bracket_kind": "backbone",
      "pairing_id": "F1/fragments[0]",
      "group_id": "<1:3",
      "ru_midpoint": [
        -0.00018846008365284994,
        -0.3816000761619466
      ],
      "bond_midpoint": [
        -2.500171375565249,
        -0.13159849218754302
      ],
      "orientation_vector": [
        0.0,
        1.0
      ],
      "half_bracket_size": 1.7320259682381889,
      "bond": [
        0,
        2
      ],
      "fragment": "F1",
      "backbone": true,
      "suspended_anchor_atom": null,
      "suspended_reason": null,
      "source_label": "F1/fragments[0]",
      "marker_id": "0",
      "side": "left",
      "connection_group": "<1",
      "marker_type_index": 3
    },
    {
      "id": 1,
      "bracket_kind": "backbone",
      "pairing_id": "F1/fragments[0]",
      "group_id": ">1:4",
      "ru_midpoint": [
        -0.00018846008365284994,
        -0.3816000761619466
      ],
      "bond_midpoint": [
        2.4997999424462325,
        -0.6315984921875432
      ],
      "orientation_vector": [
        0.0,
        1.0
      ],
      "half_bracket_size": 1.7320259682381889,
      "bond": [
        1,
        9
      ],
      "fragment": "F1",
      "backbone": true,
      "suspended_anchor_atom": null,
      "suspended_reason": null,
      "source_label": "F1/fragments[0]",
      "marker_id": "10",
      "side": "right",
      "connection_group": ">1",
      "marker_type_index": 4
    }
  ]
}
