
     RDKit          2D

  0  0  0  0  0  0  0  0  0  0999 V3000
M  V30 BEGIN CTAB
M  V30 COUNTS 25 26 1 0 0
M  V30 BEGIN ATOM
M  V30 1 H -5.433225 0.118358 0.000000 0
M  V30 2 H 5.298806 -0.381642 0.000000 0
M  V30 3 O -4.433225 -0.381642 0.000000 0
M  V30 4 C -3.433225 -0.381642 0.000000 0
M  V30 5 C -2.933212 0.484405 0.000000 0
M  V30 6 C -1.933187 0.484405 0.000000 0
M  V30 7 C -1.433175 -0.381642 0.000000 0
M  V30 8 C -1.933187 -1.247689 0.000000 0
M  V30 9 C -2.933212 -1.247689 0.000000 0
M  V30 10 C -0.433175 -0.381642 0.000000 0
M  V30 11 C -0.433175 0.618358 0.000000 0
M  V30 12 C 0.432814 1.118308 0.000000 0
M  V30 13 C 0.432987 2.118233 0.000000 0
M  V30 14 C -0.433175 -1.381642 0.000000 0
M  V30 15 C -1.299235 -1.881595 0.000000 0
M  V30 16 C -1.299235 -2.881538 0.000000 0
M  V30 17 C 0.566825 -0.381642 0.000000 0
M  V30 18 C 1.066813 0.484362 0.000000 0
M  V30 19 C 2.066788 0.484362 0.000000 0
M  V30 20 C 2.566776 -0.381642 0.000000 0
M  V30 21 C 2.066788 -1.247646 0.000000 0
M  V30 22 C 1.066813 -1.247646 0.000000 0
M  V30 23 O 3.566776 -0.381642 0.000000 0
M  V30 24 C 4.432791 0.118461 0.000000 0
M  V30 25 O 4.432796 1.118468 0.000000 0
M  V30 END ATOM
M  V30 BEGIN BOND
M  V30 1 1 3 4
M  V30 2 2 4 5
M  V30 3 1 5 6
M  V30 4 2 6 7
M  V30 5 1 7 8
M  V30 6 2 8 9
M  V30 7 1 7 10
M  V30 8 1 10 11
M  V30 9 1 11 12
M  V30 10 1 12 13
M  V30 11 1 10 14
M  V30 12 1 14 15
M  V30 13 1 15 16
M  V30 14 1 10 17
M  V30 15 2 17 18
M  V30 16 1 18 19
M  V30 17 2 19 20
M  V30 18 1 20 21
M  V30 19 2 21 22
M  V30 20 1 20 23
M  V30 21 1 23 24
M  V30 22 2 24 25
M  V30 23 1 9 4
M  V30 24 1 22 17
M  V30 25 1 1 3
M  V30 26 1 2 24
M  V30 END BOND
M  V30 BEGIN SGROUP
M  V30 1 SRU 0 ATOMS=(4 1 2 3 24) CBONDS=(2 25 26) -
M  V30 BRKXYZ=(9 -4.9332 1.6005 0 -4.9332 -1.8637 0 0 0 0) BRKXYZ=(9 4.8658 1.-
M  V30 6005 0 4.8658 -1.8637 0 0 0 0)
M  V30 END SGROUP
M  V30 END CTAB
M  END
>  <BIGSMILES_BRACKET_RECORDS_JSON>
{
  "records": [
    {
      "id": 0,
      "bracket_kind": "backbone",
      "pairing_id": "F1/mergedFragments[0]",
      "group_id": "<1:3",
      "ru_midpoint": [
        -0.18172341791218338,
        -0.3816408742820569
      ],
      "bond_midpoint": [
        -4.933224848323019,
        -0.13164219823096815
      ],
      "orientation_vector": [
        0.0,
        1.0
      ],
      "half_bracket_size": 1.7320941101351117,
      "bond": [
        0,
        2
      ],
      "fragment": "F1",
      "backbone": true,
      "suspended_anchor_atom": null,
      "suspended_reason": null,
      "source_label": "F1/mergedFragments[0]",
      "marker_id": "0",
      "side": "left",
      "connection_group": "<1",
      "marker_type_index": 3
    },
    {
      "id": 1,
      "bracket_kind": "backbone",
      "pairing_id": "F1/mergedFragments[0]",
      "group_id": ">1:4",
      "ru_midpoint": [
        -0.18172341791218338,
        -0.3816408742820569
      ],
      "bond_midpoint": [
        4.865798637762676,
        -0.13159057860819523
      ],
      "orientation_vector": [
        0.0,
        1.0
      ],
      "half_bracket_size": 1.7320941101351117,
      "bond": [
        1,
        23
      ],
      "fragment": "F1",
      "backbone": true,
      "suspended_anchor_atom": null,
      "suspended_reason": null,
      "source_label": "F1/mergedFragments[0]",
      "marker_id": "24",
      "side": "right",
      "connection_group": ">1",
      "marker_type_index": 4
    }
  ]
}
