
     RDKit          2D

  0  0  0  0  0  0  0  0  0  0999 V3000
M  V30 BEGIN CTAB
M  V30 COUNTS 22 23 1 0 0
M  V30 BEGIN ATOM
M  V30 1 H -5.433153 0.118377 0.000000 0
M  V30 2 H 5.298723 -0.381623 0.000000 0
M  V30 3 O -4.433153 -0.381623 0.000000 0
M  V30 4 C -3.433153 -0.381623 0.000000 0
M  V30 5 C -2.933177 0.484361 0.000000 0
M  V30 6 C -1.933225 0.484361 0.000000 0
M  V30 7 C -1.433248 -0.381623 0.000000 0
M  V30 8 C -1.933225 -1.247607 0.000000 0
M  V30 9 C -2.933177 -1.247607 0.000000 0
M  V30 10 C -0.433248 -0.381623 0.000000 0
M  V30 11 C -0.433248 -1.381623 0.000000 0
M  V30 12 Cl 0.432898 -1.881464 0.000000 0
M  V30 13 Cl -1.299221 -1.881715 0.000000 0
M  V30 14 C 0.566752 -0.381623 0.000000 0
M  V30 15 C 1.066742 0.484386 0.000000 0
M  V30 16 C 2.066723 0.484386 0.000000 0
M  V30 17 C 2.566714 -0.381623 0.000000 0
M  V30 18 C 2.066723 -1.247632 0.000000 0
M  V30 19 C 1.066742 -1.247632 0.000000 0
M  V30 20 O 3.566714 -0.381623 0.000000 0
M  V30 21 C 4.432718 0.118477 0.000000 0
M  V30 22 O 4.432721 1.118477 0.000000 0
M  V30 END ATOM
M  V30 BEGIN BOND
M  V30 1 1 3 4
M  V30 2 2 4 5
M  V30 3 1 5 6
M  V30 4 2 6 7
M  V30 5 1 7 8
M  V30 6 2 8 9
M  V30 7 1 7 10
M  V30 8 2 10 11
M  V30 9 1 11 12
M  V30 10 1 11 13
M  V30 11 1 10 14
M  V30 12 2 14 15
M  V30 13 1 15 16
M  V30 14 2 16 17
M  V30 15 1 17 18
M  V30 16 2 18 19
M  V30 17 1 17 20
M  V30 18 1 20 21
M  V30 19 2 21 22
M  V30 20 1 9 4
M  V30 21 1 19 14
M  V30 22 1 1 3
M  V30 23 1 2 21
M  V30 END BOND
M  V30 BEGIN SGROUP
M  V30 1 SRU 0 ATOMS=(4 1 2 3 21) CBONDS=(2 22 23) -
M  V30 BRKXYZ=(9 -4.9332 1.6004 0 -4.9332 -1.8636 0 0 0 0) BRKXYZ=(9 4.8657 1.-
M  V30 6004 0 4.8657 -1.8636 0 0 0 0)
M  V30 END SGROUP
M  V30 END CTAB
M  END
>  <BIGSMILES_BRACKET_RECORDS_JSON>
{
  "records": [
    {
      "id": 0,
      "bracket_kind": "backbone",
      "pairing_id": "F1/mergedFragments[0]",
      "group_id": "<1:3",
      "ru_midpoint": [
        -0.18175994508276672,
        -0.3816218678982293
      ],
      "bond_midpoint": [
        -4.933153088547282,
        -0.1316233553004458
      ],
      "orientation_vector": [
        0.0,
        1.0
      ],
      "half_bracket_size": 1.732018218374031,
      "bond": [
        0,
        2
      ],
      "fragment": "F1",
      "backbone": true,
      "suspended_anchor_atom": null,
      "suspended_reason": null,
      "source_label": "F1/mergedFragments[0]",
      "marker_id": "0",
      "side": "left",
      "connection_group": "<1",
      "marker_type_index": 3
    },
    {
      "id": 1,
      "bracket_kind": "backbone",
      "pairing_id": "F1/mergedFragments[0]",
      "group_id": ">1:4",
      "ru_midpoint": [
        -0.18175994508276672,
        -0.3816218678982293
      ],
      "bond_midpoint": [
        4.865720711767919,
        -0.1315732753254295
      ],
      "orientation_vector": [
        0.0,
        1.0
      ],
      "half_bracket_size": 1.732018218374031,
      "bond": [
        1,
        20
      ],
      "fragment": "F1",
      "backbone": true,
      "suspended_anchor_atom": null,
      "suspended_reason": null,
      "source_label": "F1/mergedFragments[0]",
      "marker_id": "21",
      "side": "right",
      "connection_group": ">1",
      "marker_type_index": 4
    }
  ]
}
