
     RDKit          2D

  0  0  0  0  0  0  0  0  0  0999 V3000
M  V30 BEGIN CTAB
M  V30 COUNTS 23 25 1 0 0
M  V30 BEGIN ATOM
M  V30 1 H -4.763636 0.301174 0.000000 0
M  V30 2 H 4.763204 0.801494 0.000000 0
M  V30 3 O -3.897611 0.801174 0.000000 0
M  V30 4 C -3.031586 0.301174 0.000000 0
M  V30 5 C -2.165511 0.801203 0.000000 0
M  V30 6 C -1.299436 0.301174 0.000000 0
M  V30 7 C -1.299436 -0.698883 0.000000 0
M  V30 8 C -2.165511 -1.198912 0.000000 0
M  V30 9 C -3.031586 -0.698883 0.000000 0
M  V30 10 C -0.433410 -1.198883 0.000000 0
M  V30 11 C 0.375561 -1.786731 0.000000 0
M  V30 12 C 0.068923 -2.739101 0.000000 0
M  V30 13 C -0.931034 -2.739806 0.000000 0
M  V30 14 C -1.242382 -1.789706 0.000000 0
M  V30 15 C 0.432615 -0.698883 0.000000 0
M  V30 16 C 0.432615 0.301494 0.000000 0
M  V30 17 C 1.298967 0.801683 0.000000 0
M  V30 18 C 2.165319 0.301494 0.000000 0
M  V30 19 C 2.165319 -0.698883 0.000000 0
M  V30 20 C 1.298967 -1.199071 0.000000 0
M  V30 21 O 3.031345 0.801494 0.000000 0
M  V30 22 C 3.897274 0.301639 0.000000 0
M  V30 23 O 3.897265 -0.698518 0.000000 0
M  V30 END ATOM
M  V30 BEGIN BOND
M  V30 1 1 3 4
M  V30 2 2 4 5
M  V30 3 1 5 6
M  V30 4 2 6 7
M  V30 5 1 7 8
M  V30 6 2 8 9
M  V30 7 1 7 10
M  V30 8 1 10 11
M  V30 9 1 11 12
M  V30 10 1 12 13
M  V30 11 1 13 14
M  V30 12 1 10 15
M  V30 13 2 15 16
M  V30 14 1 16 17
M  V30 15 2 17 18
M  V30 16 1 18 19
M  V30 17 2 19 20
M  V30 18 1 18 21
M  V30 19 1 21 22
M  V30 20 2 22 23
M  V30 21 1 9 4
M  V30 22 1 14 10
M  V30 23 1 20 15
M  V30 24 1 1 3
M  V30 25 1 2 22
M  V30 END BOND
M  V30 BEGIN SGROUP
M  V30 1 SRU 0 ATOMS=(4 1 2 3 22) CBONDS=(2 24 25) -
M  V30 BRKXYZ=(9 -4.3306 2.5519 0 -4.3306 -1.4496 0 0 0 0) BRKXYZ=(9 4.3302 2.-
M  V30 5523 0 4.3302 -1.4492 0 0 0 0)
M  V30 END SGROUP
M  V30 END CTAB
M  END
>  <BIGSMILES_BRACKET_RECORDS_JSON>
{
  "records": [
    {
      "id": 0,
      "bracket_kind": "backbone",
      "pairing_id": "F1/mergedFragments[0]",
      "group_id": "<1:3",
      "ru_midpoint": [
        -0.14463097243374357,
        -0.5320973115458851
      ],
      "bond_midpoint": [
        -4.330623698610484,
        0.5511744271799125
      ],
      "orientation_vector": [
        0.0,
        1.0
      ],
      "half_bracket_size": 2.000754380542148,
      "bond": [
        0,
        2
      ],
      "fragment": "F1",
      "backbone": true,
      "suspended_anchor_atom": null,
      "suspended_reason": null,
      "source_label": "F1/mergedFragments[0]",
      "marker_id": "0",
      "side": "left",
      "connection_group": "<1",
      "marker_type_index": 3
    },
    {
      "id": 1,
      "bracket_kind": "backbone",
      "pairing_id": "F1/mergedFragments[0]",
      "group_id": ">1:4",
      "ru_midpoint": [
        -0.14463097243374357,
        -0.5320973115458851
      ],
      "bond_midpoint": [
        4.330239061102513,
        0.551566748246184
      ],
      "orientation_vector": [
        0.0,
        1.0
      ],
      "half_bracket_size": 2.000754380542148,
      "bond": [
        1,
        21
      ],
      "fragment": "F1",
      "backbone": true,
      "suspended_anchor_atom": null,
      "suspended_reason": null,
      "source_label": "F1/mergedFragments[0]",
      "marker_id": "22",
      "side": "right",
      "connection_group": ">1",
      "marker_type_index": 4
    }
  ]
}
