
     RDKit          2D

  0  0  0  0  0  0  0  0  0  0999 V3000
M  V30 BEGIN CTAB
M  V30 COUNTS 26 28 1 0 0
M  V30 BEGIN ATOM
M  V30 1 H -5.433081 0.118414 0.000000 0
M  V30 2 H 5.298737 -0.381586 0.000000 0
M  V30 3 O -4.433081 -0.381586 0.000000 0
M  V30 4 C -3.433081 -0.381586 0.000000 0
M  V30 5 C -2.933105 0.484398 0.000000 0
M  V30 6 C -1.933152 0.484398 0.000000 0
M  V30 7 C -1.433176 -0.381586 0.000000 0
M  V30 8 C -1.933152 -1.247570 0.000000 0
M  V30 9 C -2.933105 -1.247570 0.000000 0
M  V30 10 C -0.433176 -0.381586 0.000000 0
M  V30 11 C -0.433176 -1.381586 0.000000 0
M  V30 12 C 0.432710 -1.881676 0.000000 0
M  V30 13 C 1.298943 -1.381635 0.000000 0
M  V30 14 C 2.164829 -1.881725 0.000000 0
M  V30 15 C 2.164829 -2.881657 0.000000 0
M  V30 16 C 1.298596 -3.381699 0.000000 0
M  V30 17 C 0.432883 -2.881508 0.000000 0
M  V30 18 C 0.566824 -0.381586 0.000000 0
M  V30 19 C 1.066800 0.484398 0.000000 0
M  V30 20 C 2.066752 0.484398 0.000000 0
M  V30 21 C 2.566728 -0.381586 0.000000 0
M  V30 22 C 2.066752 -1.247570 0.000000 0
M  V30 23 C 1.066800 -1.247570 0.000000 0
M  V30 24 O 3.566728 -0.381586 0.000000 0
M  V30 25 C 4.432733 0.118514 0.000000 0
M  V30 26 O 4.432735 1.118515 0.000000 0
M  V30 END ATOM
M  V30 BEGIN BOND
M  V30 1 1 3 4
M  V30 2 2 4 5
M  V30 3 1 5 6
M  V30 4 2 6 7
M  V30 5 1 7 8
M  V30 6 2 8 9
M  V30 7 1 7 10
M  V30 8 1 10 11
M  V30 9 1 11 12
M  V30 10 2 12 13
M  V30 11 1 13 14
M  V30 12 2 14 15
M  V30 13 1 15 16
M  V30 14 2 16 17
M  V30 15 1 10 18
M  V30 16 2 18 19
M  V30 17 1 19 20
M  V30 18 2 20 21
M  V30 19 1 21 22
M  V30 20 2 22 23
M  V30 21 1 21 24
M  V30 22 1 24 25
M  V30 23 2 25 26
M  V30 24 1 9 4
M  V30 25 1 17 12
M  V30 26 1 23 18
M  V30 27 1 1 3
M  V30 28 1 2 25
M  V30 END BOND
M  V30 BEGIN SGROUP
M  V30 1 SRU 0 ATOMS=(4 1 2 3 25) CBONDS=(2 27 28) -
M  V30 BRKXYZ=(9 -4.9331 1.6004 0 -4.9331 -1.8636 0 0 0 0) BRKXYZ=(9 4.8657 1.-
M  V30 6004 0 4.8657 -1.8635 0 0 0 0)
M  V30 END SGROUP
M  V30 END CTAB
M  END
>  <BIGSMILES_BRACKET_RECORDS_JSON>
{
  "records": [
    {
      "id": 0,
      "bracket_kind": "backbone",
      "pairing_id": "F1/mergedFragments[0]",
      "group_id": "<1:3",
      "ru_midpoint": [
        -0.18171188808967909,
        -0.3815871796228734
      ],
      "bond_midpoint": [
        -4.933080987136678,
        -0.13158589306609517
      ],
      "orientation_vector": [
        0.0,
        1.0
      ],
      "half_bracket_size": 1.7319682319603302,
      "bond": [
        0,
        2
      ],
      "fragment": "F1",
      "backbone": true,
      "suspended_anchor_atom": null,
      "suspended_reason": null,
      "source_label": "F1/mergedFragments[0]",
      "marker_id": "0",
      "side": "left",
      "connection_group": "<1",
      "marker_type_index": 3
    },
    {
      "id": 1,
      "bracket_kind": "backbone",
      "pairing_id": "F1/mergedFragments[0]",
      "group_id": ">1:4",
      "ru_midpoint": [
        -0.18171188808967909,
        -0.3815871796228734
      ],
      "bond_midpoint": [
        4.865735093839712,
        -0.1315358130910833
      ],
      "orientation_vector": [
        0.0,
        1.0
      ],
      "half_bracket_size": 1.7319682319603302,
      "bond": [
        1,
        24
      ],
      "fragment": "F1",
      "backbone": true,
      "suspended_anchor_atom": null,
      "suspended_reason": null,
      "source_label": "F1/mergedFragments[0]",
      "marker_id": "25",
      "side": "right",
      "connection_group": ">1",
      "marker_type_index": 4
    }
  ]
}
