
     RDKit          2D

  0  0  0  0  0  0  0  0  0  0999 V3000
M  V30 BEGIN CTAB
M  V30 COUNTS 28 29 1 0 0
M  V30 BEGIN ATOM
M  V30 1 H -1.299256 -0.448606 0.000000 0
M  V30 2 H 1.298885 0.051406 0.000000 0
M  V30 3 P -0.433209 0.051406 0.000000 0
M  V30 4 O -0.433209 1.051331 0.000000 0
M  V30 5 C -1.300141 1.551761 0.000000 0
M  V30 6 C -1.298208 2.551034 0.000000 0
M  V30 7 C -2.166354 3.052163 0.000000 0
M  V30 8 C -3.030713 2.550724 0.000000 0
M  V30 9 C -3.898338 3.051553 0.000000 0
M  V30 10 C -3.896406 4.050826 0.000000 0
M  V30 11 C -4.764551 4.551955 0.000000 0
M  V30 12 C -5.628910 4.050516 0.000000 0
M  V30 13 C -5.630843 3.051243 0.000000 0
M  V30 14 C -4.762797 2.549941 0.000000 0
M  V30 15 C -3.032646 1.551451 0.000000 0
M  V30 16 C -2.164500 1.050322 0.000000 0
M  V30 17 N -0.433209 -0.948519 0.000000 0
M  V30 18 C -1.299101 -1.448613 0.000000 0
M  V30 19 C -1.298928 -2.448637 0.000000 0
M  V30 20 O -0.432862 -2.948568 0.000000 0
M  V30 21 N -2.164820 -2.948731 0.000000 0
M  V30 22 C -2.164820 -3.948656 0.000000 0
M  V30 23 C -3.030713 -4.448750 0.000000 0
M  V30 24 O -3.896779 -3.948819 0.000000 0
M  V30 25 O -3.030713 -5.448675 0.000000 0
M  V30 26 C -3.896605 -5.948769 0.000000 0
M  V30 27 C -3.896605 -6.948693 0.000000 0
M  V30 28 N 0.432838 -0.448606 0.000000 0
M  V30 END ATOM
M  V30 BEGIN BOND
M  V30 1 1 3 4
M  V30 2 1 4 5
M  V30 3 2 5 6
M  V30 4 1 6 7
M  V30 5 2 7 8
M  V30 6 1 8 9
M  V30 7 2 9 10
M  V30 8 1 10 11
M  V30 9 2 11 12
M  V30 10 1 12 13
M  V30 11 2 13 14
M  V30 12 1 8 15
M  V30 13 2 15 16
M  V30 14 1 3 17
M  V30 15 1 17 18
M  V30 16 1 18 19
M  V30 17 2 19 20
M  V30 18 1 19 21
M  V30 19 1 21 22
M  V30 20 1 22 23
M  V30 21 2 23 24
M  V30 22 1 23 25
M  V30 23 1 25 26
M  V30 24 1 26 27
M  V30 25 2 3 28
M  V30 26 1 16 5
M  V30 27 1 14 9
M  V30 28 1 1 3
M  V30 29 1 2 28
M  V30 END BOND
M  V30 BEGIN SGROUP
M  V30 1 SRU 0 ATOMS=(4 1 2 3 28) CBONDS=(2 28 29) -
M  V30 BRKXYZ=(9 -0.8662 0.3014 0 -0.8662 -0.6986 0 0 0 0) BRKXYZ=(9 0.8659 0.-
M  V30 3014 0 0.8659 -0.6986 0 0 0 0)
M  V30 END SGROUP
M  V30 END CTAB
M  END
>  <BIGSMILES_BRACKET_RECORDS_JSON>
{
  "records": [
    {
      "id": 0,
      "bracket_kind": "backbone",
      "pairing_id": "F1/fragments[0]",
      "group_id": "<1:3",
      "ru_midpoint": [
        -0.00018889469831767647,
        -0.198606084922053
      ],
      "bond_midpoint": [
        -0.8662321413007676,
        -0.1986
      ],
      "orientation_vector": [
        0.0,
        1.0
      ],
      "half_bracket_size": 0.5000123298479748,
      "bond": [
        0,
        2
      ],
      "fragment": "F1",
      "backbone": true,
      "suspended_anchor_atom": null,
      "suspended_reason": null,
      "source_label": "F1/fragments[0]",
      "marker_id": "0",
      "side": "left",
      "connection_group": "<1",
      "marker_type_index": 3
    },
    {
      "id": 1,
      "bracket_kind": "backbone",
      "pairing_id": "F1/fragments[0]",
      "group_id": ">1:4",
      "ru_midpoint": [
        -0.00018889469831767647,
        -0.198606084922053
      ],
      "bond_midpoint": [
        0.8658613781143936,
        -0.1986
      ],
      "orientation_vector": [
        0.0,
        1.0
      ],
      "half_bracket_size": 0.5000123298479748,
      "bond": [
        1,
        27
      ],
      "fragment": "F1",
      "backbone": true,
      "suspended_anchor_atom": null,
      "suspended_reason": null,
      "source_label": "F1/fragments[0]",
      "marker_id": "27",
      "side": "right",
      "connection_group": ">1",
      "marker_type_index": 4
    }
  ]
}
