
     RDKit          2D

  0  0  0  0  0  0  0  0  0  0999 V3000
M  V30 BEGIN CTAB
M  V30 COUNTS 53 60 1 0 0
M  V30 BEGIN ATOM
M  V30 1 H -12.255906 -0.531002 0.000000 0
M  V30 2 H 12.255507 -1.031335 0.000000 0
M  V30 3 N -11.265021 -0.665710 0.000000 0
M  V30 4 C -10.791494 -1.546635 0.000000 0
M  V30 5 O -11.225791 -2.447403 0.000000 0
M  V30 6 C -9.807596 -1.368553 0.000000 0
M  V30 7 C -9.016807 -1.980531 0.000000 0
M  V30 8 C -8.091348 -1.601618 0.000000 0
M  V30 9 C -7.956678 -0.610727 0.000000 0
M  V30 10 C -8.747467 0.001251 0.000000 0
M  V30 11 C -9.672926 -0.377663 0.000000 0
M  V30 12 C -10.573691 0.056639 0.000000 0
M  V30 13 O -10.751752 1.040541 0.000000 0
M  V30 14 O -7.031219 -0.231878 0.000000 0
M  V30 15 C -6.031219 -0.231878 0.000000 0
M  V30 16 C -5.531226 0.634135 0.000000 0
M  V30 17 C -4.531241 0.634135 0.000000 0
M  V30 18 C -4.031248 -0.231878 0.000000 0
M  V30 19 C -4.531241 -1.097891 0.000000 0
M  V30 20 C -5.531226 -1.097891 0.000000 0
M  V30 21 S -3.031248 -0.231878 0.000000 0
M  V30 22 C -2.031248 -0.231878 0.000000 0
M  V30 23 C -1.531255 0.634135 0.000000 0
M  V30 24 C -0.531269 0.634135 0.000000 0
M  V30 25 C -0.031277 -0.231878 0.000000 0
M  V30 26 C -0.531269 -1.097891 0.000000 0
M  V30 27 C -1.531255 -1.097891 0.000000 0
M  V30 28 O 0.968723 -0.231878 0.000000 0
M  V30 29 C 1.894182 -0.610727 0.000000 0
M  V30 30 C 2.028737 -1.601564 0.000000 0
M  V30 31 C 2.954194 -1.980418 0.000000 0
M  V30 32 C 3.745096 -1.368435 0.000000 0
M  V30 33 C 4.728969 -1.546430 0.000000 0
M  V30 34 O 5.163232 -2.447199 0.000000 0
M  V30 35 N 5.202469 -0.665860 0.000000 0
M  V30 36 C 4.511070 0.056886 0.000000 0
M  V30 37 O 4.689170 1.040699 0.000000 0
M  V30 38 C 3.610356 -0.377522 0.000000 0
M  V30 39 C 2.684899 0.001333 0.000000 0
M  V30 40 C 6.193379 -0.531335 0.000000 0
M  V30 41 C 7.059392 -1.031328 0.000000 0
M  V30 42 C 7.925405 -0.531335 0.000000 0
M  V30 43 C 7.925405 0.468651 0.000000 0
M  V30 44 C 7.059392 0.968644 0.000000 0
M  V30 45 C 6.193379 0.468651 0.000000 0
M  V30 46 C 8.791431 -1.031335 0.000000 0
M  V30 47 O 8.791431 -2.031335 0.000000 0
M  V30 48 C 9.657456 -0.531335 0.000000 0
M  V30 49 C 10.523469 -1.031328 0.000000 0
M  V30 50 C 11.389482 -0.531335 0.000000 0
M  V30 51 C 11.389482 0.468651 0.000000 0
M  V30 52 C 10.523469 0.968644 0.000000 0
M  V30 53 C 9.657456 0.468651 0.000000 0
M  V30 END ATOM
M  V30 BEGIN BOND
M  V30 1 1 3 4
M  V30 2 2 4 5
M  V30 3 1 4 6
M  V30 4 2 6 7
M  V30 5 1 7 8
M  V30 6 2 8 9
M  V30 7 1 9 10
M  V30 8 2 10 11
M  V30 9 1 11 12
M  V30 10 2 12 13
M  V30 11 1 9 14
M  V30 12 1 14 15
M  V30 13 2 15 16
M  V30 14 1 16 17
M  V30 15 2 17 18
M  V30 16 1 18 19
M  V30 17 2 19 20
M  V30 18 1 18 21
M  V30 19 1 21 22
M  V30 20 2 22 23
M  V30 21 1 23 24
M  V30 22 2 24 25
M  V30 23 1 25 26
M  V30 24 2 26 27
M  V30 25 1 25 28
M  V30 26 1 28 29
M  V30 27 2 29 30
M  V30 28 1 30 31
M  V30 29 2 31 32
M  V30 30 1 32 33
M  V30 31 2 33 34
M  V30 32 1 33 35
M  V30 33 1 35 36
M  V30 34 2 36 37
M  V30 35 1 36 38
M  V30 36 2 38 39
M  V30 37 1 35 40
M  V30 38 2 40 41
M  V30 39 1 41 42
M  V30 40 2 42 43
M  V30 41 1 43 44
M  V30 42 2 44 45
M  V30 43 1 42 46
M  V30 44 2 46 47
M  V30 45 1 46 48
M  V30 46 2 48 49
M  V30 47 1 49 50
M  V30 48 2 50 51
M  V30 49 1 51 52
M  V30 50 2 52 53
M  V30 51 1 12 3
M  V30 52 1 45 40
M  V30 53 1 11 6
M  V30 54 1 53 48
M  V30 55 1 20 15
M  V30 56 1 27 22
M  V30 57 1 39 29
M  V30 58 1 38 32
M  V30 59 1 1 3
M  V30 60 1 2 50
M  V30 END BOND
M  V30 BEGIN SGROUP
M  V30 1 SRU 0 ATOMS=(4 1 2 3 50) CBONDS=(2 59 60) -
M  V30 BRKXYZ=(9 -11.7605 2.3508 0 -11.7605 -3.5475 0 0 0 0) BRKXYZ=(9 11.8225-
M  V30  2.1678 0 11.8225 -3.7305 0 0 0 0)
M  V30 END SGROUP
M  V30 END CTAB
M  END
>  <BIGSMILES_BRACKET_RECORDS_JSON>
{
  "records": [
    {
      "id": 0,
      "bracket_kind": "backbone",
      "pairing_id": "F1/mergedFragments[0]",
      "group_id": "<1:3",
      "ru_midpoint": [
        0.2970088268243529,
        -0.4715465150846323
      ],
      "bond_midpoint": [
        -11.760463469043794,
        -0.5983563455340417
      ],
      "orientation_vector": [
        0.0,
        1.0
      ],
      "half_bracket_size": 2.949174799926797,
      "bond": [
        0,
        2
      ],
      "fragment": "F1",
      "backbone": true,
      "suspended_anchor_atom": null,
      "suspended_reason": null,
      "source_label": "F1/mergedFragments[0]",
      "marker_id": "0",
      "side": "left",
      "connection_group": "<1",
      "marker_type_index": 3
    },
    {
      "id": 1,
      "bracket_kind": "backbone",
      "pairing_id": "F1/mergedFragments[0]",
      "group_id": ">1:4",
      "ru_midpoint": [
        0.2970088268243529,
        -0.4715465150846323
      ],
      "bond_midpoint": [
        11.822494585081447,
        -0.781334748844829
      ],
      "orientation_vector": [
        0.0,
        1.0
      ],
      "half_bracket_size": 2.949174799926797,
      "bond": [
        1,
        49
      ],
      "fragment": "F1",
      "backbone": true,
      "suspended_anchor_atom": null,
      "suspended_reason": null,
      "source_label": "F1/mergedFragments[0]",
      "marker_id": "52",
      "side": "right",
      "connection_group": ">1",
      "marker_type_index": 4
    }
  ]
}
