
     RDKit          2D

  0  0  0  0  0  0  0  0  0  0999 V3000
M  V30 BEGIN CTAB
M  V30 COUNTS 29 31 1 0 0
M  V30 BEGIN ATOM
M  V30 1 H -7.433387 -0.131645 0.000000 0
M  V30 2 H 7.432850 -0.631622 0.000000 0
M  V30 3 O -6.433387 -0.631645 0.000000 0
M  V30 4 C -5.433387 -0.631645 0.000000 0
M  V30 5 C -4.933371 0.234409 0.000000 0
M  V30 6 C -3.933338 0.234409 0.000000 0
M  V30 7 C -3.433322 -0.631645 0.000000 0
M  V30 8 C -3.933338 -1.497699 0.000000 0
M  V30 9 C -4.933371 -1.497699 0.000000 0
M  V30 10 C -2.433322 -0.631645 0.000000 0
M  V30 11 C -2.433322 0.368355 0.000000 0
M  V30 12 C -2.433322 -1.631645 0.000000 0
M  V30 13 C -1.433322 -0.631645 0.000000 0
M  V30 14 C -0.933320 0.234384 0.000000 0
M  V30 15 C 0.066684 0.234384 0.000000 0
M  V30 16 C 0.566686 -0.631645 0.000000 0
M  V30 17 C 0.066684 -1.497674 0.000000 0
M  V30 18 C -0.933320 -1.497674 0.000000 0
M  V30 19 O 1.566686 -0.631645 0.000000 0
M  V30 20 C 2.432751 -0.131622 0.000000 0
M  V30 21 O 2.173929 0.834317 0.000000 0
M  V30 22 C 3.432751 -0.131622 0.000000 0
M  V30 23 C 3.932776 0.734446 0.000000 0
M  V30 24 C 4.932826 0.734446 0.000000 0
M  V30 25 C 5.432850 -0.131622 0.000000 0
M  V30 26 C 4.932826 -0.997690 0.000000 0
M  V30 27 C 3.932776 -0.997690 0.000000 0
M  V30 28 C 6.432850 -0.131622 0.000000 0
M  V30 29 O 6.691721 -1.097549 0.000000 0
M  V30 END ATOM
M  V30 BEGIN BOND
M  V30 1 1 3 4
M  V30 2 2 4 5
M  V30 3 1 5 6
M  V30 4 2 6 7
M  V30 5 1 7 8
M  V30 6 2 8 9
M  V30 7 1 7 10
M  V30 8 1 10 11
M  V30 9 1 10 12
M  V30 10 1 10 13
M  V30 11 2 13 14
M  V30 12 1 14 15
M  V30 13 2 15 16
M  V30 14 1 16 17
M  V30 15 2 17 18
M  V30 16 1 16 19
M  V30 17 1 19 20
M  V30 18 2 20 21
M  V30 19 1 20 22
M  V30 20 2 22 23
M  V30 21 1 23 24
M  V30 22 2 24 25
M  V30 23 1 25 26
M  V30 24 2 26 27
M  V30 25 1 25 28
M  V30 26 2 28 29
M  V30 27 1 9 4
M  V30 28 1 18 13
M  V30 29 1 27 22
M  V30 30 1 1 3
M  V30 31 1 2 28
M  V30 END BOND
M  V30 BEGIN SGROUP
M  V30 1 SRU 0 ATOMS=(4 1 2 3 28) CBONDS=(2 30 31) -
M  V30 BRKXYZ=(9 -6.9334 1.8505 0 -6.9334 -2.6138 0 0 0 0) BRKXYZ=(9 6.9329 1.-
M  V30 8505 0 6.9329 -2.6138 0 0 0 0)
M  V30 END SGROUP
M  V30 END CTAB
M  END
>  <BIGSMILES_BRACKET_RECORDS_JSON>
{
  "records": [
    {
      "id": 0,
      "bracket_kind": "backbone",
      "pairing_id": "F1/mergedFragments[0]",
      "group_id": "<1:3",
      "ru_midpoint": [
        -0.041521934385631454,
        -0.45162903089868056
      ],
      "bond_midpoint": [
        -6.933387381124583,
        -0.3816450673888152
      ],
      "orientation_vector": [
        0.0,
        1.0
      ],
      "half_bracket_size": 2.2321450002838628,
      "bond": [
        0,
        2
      ],
      "fragment": "F1",
      "backbone": true,
      "suspended_anchor_atom": null,
      "suspended_reason": null,
      "source_label": "F1/mergedFragments[0]",
      "marker_id": "0",
      "side": "left",
      "connection_group": "<1",
      "marker_type_index": 3
    },
    {
      "id": 1,
      "bracket_kind": "backbone",
      "pairing_id": "F1/mergedFragments[0]",
      "group_id": ">1:4",
      "ru_midpoint": [
        -0.041521934385631454,
        -0.45162903089868056
      ],
      "bond_midpoint": [
        6.932850274865402,
        -0.3816221779127478
      ],
      "orientation_vector": [
        0.0,
        1.0
      ],
      "half_bracket_size": 2.2321450002838628,
      "bond": [
        1,
        27
      ],
      "fragment": "F1",
      "backbone": true,
      "suspended_anchor_atom": null,
      "suspended_reason": null,
      "source_label": "F1/mergedFragments[0]",
      "marker_id": "28",
      "side": "right",
      "connection_group": ">1",
      "marker_type_index": 4
    }
  ]
}
