
     RDKit          2D

  0  0  0  0  0  0  0  0  0  0999 V3000
M  V30 BEGIN CTAB
M  V30 COUNTS 53 60 1 0 0
M  V30 BEGIN ATOM
M  V30 1 H -11.975493 -0.350577 0.000000 0
M  V30 2 H 11.975094 -1.211171 0.000000 0
M  V30 3 N -10.984698 -0.485947 0.000000 0
M  V30 4 C -10.512105 -1.367525 0.000000 0
M  V30 5 O -10.945978 -2.267305 0.000000 0
M  V30 6 C -9.527967 -1.188346 0.000000 0
M  V30 7 C -8.735762 -1.802185 0.000000 0
M  V30 8 C -7.811391 -1.421969 0.000000 0
M  V30 9 C -7.675069 -0.431504 0.000000 0
M  V30 10 C -8.468271 0.179443 0.000000 0
M  V30 11 C -9.391474 -0.198106 0.000000 0
M  V30 12 C -10.293606 0.235856 0.000000 0
M  V30 13 O -10.472134 1.220390 0.000000 0
M  V30 14 O -6.749724 -0.052380 0.000000 0
M  V30 15 C -5.749724 -0.052380 0.000000 0
M  V30 16 C -5.249536 0.813971 0.000000 0
M  V30 17 C -4.249160 0.813971 0.000000 0
M  V30 18 C -3.748972 -0.052380 0.000000 0
M  V30 19 C -4.249160 -0.918731 0.000000 0
M  V30 20 C -5.249536 -0.918731 0.000000 0
M  V30 21 S -2.748972 -0.052380 0.000000 0
M  V30 22 C -1.748972 -0.052380 0.000000 0
M  V30 23 C -1.248856 0.813847 0.000000 0
M  V30 24 C -0.248624 0.813847 0.000000 0
M  V30 25 C 0.251492 -0.052380 0.000000 0
M  V30 26 C -0.248624 -0.918606 0.000000 0
M  V30 27 C -1.248856 -0.918606 0.000000 0
M  V30 28 O 1.251492 -0.052380 0.000000 0
M  V30 29 C 2.177305 -0.430362 0.000000 0
M  V30 30 C 2.315076 -1.420929 0.000000 0
M  V30 31 C 3.236828 -1.801889 0.000000 0
M  V30 32 C 4.028840 -1.190629 0.000000 0
M  V30 33 C 5.010554 -1.367914 0.000000 0
M  V30 34 O 5.446293 -2.268672 0.000000 0
M  V30 35 N 5.483508 -0.483377 0.000000 0
M  V30 36 C 4.791523 0.232596 0.000000 0
M  V30 37 O 4.967289 1.218053 0.000000 0
M  V30 38 C 3.893426 -0.200598 0.000000 0
M  V30 39 C 2.967716 0.179751 0.000000 0
M  V30 40 C 6.473908 -0.345146 0.000000 0
M  V30 41 C 7.474228 -0.345146 0.000000 0
M  V30 42 C 7.974388 0.521157 0.000000 0
M  V30 43 C 7.474228 1.387459 0.000000 0
M  V30 44 C 6.473908 1.387459 0.000000 0
M  V30 45 C 5.973748 0.521157 0.000000 0
M  V30 46 C 7.974228 -1.211171 0.000000 0
M  V30 47 O 7.534703 -1.972451 0.000000 0
M  V30 48 C 8.974228 -1.211171 0.000000 0
M  V30 49 C 9.474445 -0.344771 0.000000 0
M  V30 50 C 10.474878 -0.344771 0.000000 0
M  V30 51 C 10.975094 -1.211171 0.000000 0
M  V30 52 C 10.474878 -2.077572 0.000000 0
M  V30 53 C 9.474445 -2.077572 0.000000 0
M  V30 END ATOM
M  V30 BEGIN BOND
M  V30 1 1 3 4
M  V30 2 2 4 5
M  V30 3 1 4 6
M  V30 4 2 6 7
M  V30 5 1 7 8
M  V30 6 2 8 9
M  V30 7 1 9 10
M  V30 8 2 10 11
M  V30 9 1 11 12
M  V30 10 2 12 13
M  V30 11 1 9 14
M  V30 12 1 14 15
M  V30 13 2 15 16
M  V30 14 1 16 17
M  V30 15 2 17 18
M  V30 16 1 18 19
M  V30 17 2 19 20
M  V30 18 1 18 21
M  V30 19 1 21 22
M  V30 20 2 22 23
M  V30 21 1 23 24
M  V30 22 2 24 25
M  V30 23 1 25 26
M  V30 24 2 26 27
M  V30 25 1 25 28
M  V30 26 1 28 29
M  V30 27 2 29 30
M  V30 28 1 30 31
M  V30 29 2 31 32
M  V30 30 1 32 33
M  V30 31 2 33 34
M  V30 32 1 33 35
M  V30 33 1 35 36
M  V30 34 2 36 37
M  V30 35 1 36 38
M  V30 36 2 38 39
M  V30 37 1 35 40
M  V30 38 1 40 41
M  V30 39 2 41 42
M  V30 40 1 42 43
M  V30 41 2 43 44
M  V30 42 1 44 45
M  V30 43 1 41 46
M  V30 44 2 46 47
M  V30 45 1 46 48
M  V30 46 2 48 49
M  V30 47 1 49 50
M  V30 48 2 50 51
M  V30 49 1 51 52
M  V30 50 2 52 53
M  V30 51 1 12 3
M  V30 52 2 45 40
M  V30 53 1 11 6
M  V30 54 1 53 48
M  V30 55 1 20 15
M  V30 56 1 27 22
M  V30 57 1 39 29
M  V30 58 1 38 32
M  V30 59 1 1 3
M  V30 60 1 2 51
M  V30 END BOND
M  V30 BEGIN SGROUP
M  V30 1 SRU 0 ATOMS=(4 1 2 3 51) CBONDS=(2 59 60) -
M  V30 BRKXYZ=(9 -11.4801 3.0468 0 -11.4801 -3.8833 0 0 0 0) BRKXYZ=(9 11.4751-
M  V30  2.2539 0 11.4751 -4.6762 0 0 0 0)
M  V30 END SGROUP
M  V30 END CTAB
M  END
>  <BIGSMILES_BRACKET_RECORDS_JSON>
{
  "records": [
    {
      "id": 0,
      "bracket_kind": "backbone",
      "pairing_id": "F1/mergedFragments[0]",
      "group_id": "<1:3",
      "ru_midpoint": [
        0.39447732868909924,
        -0.43046531817071854
      ],
      "bond_midpoint": [
        -11.480095509992426,
        -0.4182619748310965
      ],
      "orientation_vector": [
        0.0,
        1.0
      ],
      "half_bracket_size": 3.4650310168148524,
      "bond": [
        0,
        2
      ],
      "fragment": "F1",
      "backbone": true,
      "suspended_anchor_atom": null,
      "suspended_reason": null,
      "source_label": "F1/mergedFragments[0]",
      "marker_id": "0",
      "side": "left",
      "connection_group": "<1",
      "marker_type_index": 3
    },
    {
      "id": 1,
      "bracket_kind": "backbone",
      "pairing_id": "F1/mergedFragments[0]",
      "group_id": ">1:4",
      "ru_midpoint": [
        0.39447732868909924,
        -0.43046531817071854
      ],
      "bond_midpoint": [
        11.475094159673723,
        -1.21117143792398
      ],
      "orientation_vector": [
        0.0,
        1.0
      ],
      "half_bracket_size": 3.4650310168148524,
      "bond": [
        1,
        50
      ],
      "fragment": "F1",
      "backbone": true,
      "suspended_anchor_atom": null,
      "suspended_reason": null,
      "source_label": "F1/mergedFragments[0]",
      "marker_id": "52",
      "side": "right",
      "connection_group": ">1",
      "marker_type_index": 4
    }
  ]
}
