
     RDKit          2D

  0  0  0  0  0  0  0  0  0  0999 V3000
M  V30 BEGIN CTAB
M  V30 COUNTS 21 23 1 0 0
M  V30 BEGIN ATOM
M  V30 1 H -2.433165 -0.631606 0.000000 0
M  V30 2 H 2.566806 -1.131606 0.000000 0
M  V30 3 C -1.433165 -0.631606 0.000000 0
M  V30 4 C -0.933172 0.234406 0.000000 0
M  V30 5 C -1.433188 1.100458 0.000000 0
M  V30 6 C -2.433188 1.100577 0.000000 0
M  V30 7 C -2.932978 1.966636 0.000000 0
M  V30 8 C -2.432968 2.832577 0.000000 0
M  V30 9 C -1.432968 2.832459 0.000000 0
M  V30 10 C -0.932978 1.966399 0.000000 0
M  V30 11 C 0.066813 0.234406 0.000000 0
M  V30 12 C 0.566806 -0.631606 0.000000 0
M  V30 13 C 0.066813 -1.497619 0.000000 0
M  V30 14 C -0.933172 -1.497619 0.000000 0
M  V30 15 C -1.433213 -2.363716 0.000000 0
M  V30 16 C -0.933180 -3.229643 0.000000 0
M  V30 17 C -1.433172 -4.095674 0.000000 0
M  V30 18 C -2.433196 -4.095777 0.000000 0
M  V30 19 C -2.933130 -3.229676 0.000000 0
M  V30 20 C -2.433138 -2.363645 0.000000 0
M  V30 21 O 1.566806 -0.631606 0.000000 0
M  V30 END ATOM
M  V30 BEGIN BOND
M  V30 1 2 3 4
M  V30 2 1 4 5
M  V30 3 2 5 6
M  V30 4 1 6 7
M  V30 5 2 7 8
M  V30 6 1 8 9
M  V30 7 2 9 10
M  V30 8 1 4 11
M  V30 9 2 11 12
M  V30 10 1 12 13
M  V30 11 2 13 14
M  V30 12 1 14 15
M  V30 13 2 15 16
M  V30 14 1 16 17
M  V30 15 2 17 18
M  V30 16 1 18 19
M  V30 17 2 19 20
M  V30 18 1 12 21
M  V30 19 1 14 3
M  V30 20 1 10 5
M  V30 21 1 20 15
M  V30 22 1 1 3
M  V30 23 1 2 21
M  V30 END BOND
M  V30 BEGIN SGROUP
M  V30 1 SRU 0 ATOMS=(4 1 2 3 21) CBONDS=(2 22 23) -
M  V30 BRKXYZ=(9 -1.9332 1.1004 0 -1.9332 -2.3636 0 0 0 0) BRKXYZ=(9 2.0668 0.-
M  V30 8504 0 2.0668 -2.6136 0 0 0 0)
M  V30 END SGROUP
M  V30 END CTAB
M  END
>  <BIGSMILES_BRACKET_RECORDS_JSON>
{
  "records": [
    {
      "id": 0,
      "bracket_kind": "backbone",
      "pairing_id": "F1/fragments[0]",
      "group_id": "<1:3",
      "ru_midpoint": [
        -0.04775383693716306,
        -0.5760551144388656
      ],
      "bond_midpoint": [
        -1.933165231298565,
        -0.6316064920595472
      ],
      "orientation_vector": [
        0.0,
        1.0
      ],
      "half_bracket_size": 1.732025968238189,
      "bond": [
        0,
        2
      ],
      "fragment": "F1",
      "backbone": true,
      "suspended_anchor_atom": null,
      "suspended_reason": null,
      "source_label": "F1/fragments[0]",
      "marker_id": "0",
      "side": "left",
      "connection_group": "<1",
      "marker_type_index": 3
    },
    {
      "id": 1,
      "bracket_kind": "backbone",
      "pairing_id": "F1/fragments[0]",
      "group_id": ">1:4",
      "ru_midpoint": [
        -0.04775383693716306,
        -0.5760551144388656
      ],
      "bond_midpoint": [
        2.066806086712916,
        -0.8816064920595468
      ],
      "orientation_vector": [
        0.0,
        1.0
      ],
      "half_bracket_size": 1.732025968238189,
      "bond": [
        1,
        20
      ],
      "fragment": "F1",
      "backbone": true,
      "suspended_anchor_atom": null,
      "suspended_reason": null,
      "source_label": "F1/fragments[0]",
      "marker_id": "20",
      "side": "right",
      "connection_group": ">1",
      "marker_type_index": 4
    }
  ]
}
