
     RDKit          2D

  0  0  0  0  0  0  0  0  0  0999 V3000
M  V30 BEGIN CTAB
M  V30 COUNTS 53 60 1 0 0
M  V30 BEGIN ATOM
M  V30 1 H -12.724819 -0.714029 0.000000 0
M  V30 2 H 12.724420 -0.714112 0.000000 0
M  V30 3 N -11.733913 -0.848587 0.000000 0
M  V30 4 C -11.260331 -1.729298 0.000000 0
M  V30 5 O -11.694545 -2.630106 0.000000 0
M  V30 6 C -10.276438 -1.551184 0.000000 0
M  V30 7 C -9.485656 -2.163334 0.000000 0
M  V30 8 C -8.560210 -1.784390 0.000000 0
M  V30 9 C -8.425572 -0.793495 0.000000 0
M  V30 10 C -9.216381 -0.181543 0.000000 0
M  V30 11 C -10.141801 -0.560289 0.000000 0
M  V30 12 C -11.042581 -0.126017 0.000000 0
M  V30 13 O -11.220733 0.857869 0.000000 0
M  V30 14 O -7.500126 -0.414616 0.000000 0
M  V30 15 C -6.500126 -0.414616 0.000000 0
M  V30 16 C -6.000133 0.451397 0.000000 0
M  V30 17 C -5.000148 0.451397 0.000000 0
M  V30 18 C -4.500155 -0.414616 0.000000 0
M  V30 19 C -5.000148 -1.280629 0.000000 0
M  V30 20 C -6.000133 -1.280629 0.000000 0
M  V30 21 S -3.500155 -0.414616 0.000000 0
M  V30 22 C -2.500155 -0.414616 0.000000 0
M  V30 23 C -2.000162 0.451397 0.000000 0
M  V30 24 C -1.000176 0.451397 0.000000 0
M  V30 25 C -0.500184 -0.414616 0.000000 0
M  V30 26 C -1.000176 -1.280629 0.000000 0
M  V30 27 C -2.000162 -1.280629 0.000000 0
M  V30 28 O 0.499816 -0.414616 0.000000 0
M  V30 29 C 1.425275 -0.793464 0.000000 0
M  V30 30 C 1.559830 -1.784301 0.000000 0
M  V30 31 C 2.485287 -2.163155 0.000000 0
M  V30 32 C 3.276189 -1.551172 0.000000 0
M  V30 33 C 4.260062 -1.729168 0.000000 0
M  V30 34 O 4.694389 -2.630070 0.000000 0
M  V30 35 N 4.733562 -0.848597 0.000000 0
M  V30 36 C 4.042348 -0.125927 0.000000 0
M  V30 37 O 4.220561 0.857865 0.000000 0
M  V30 38 C 3.141449 -0.560259 0.000000 0
M  V30 39 C 2.215992 -0.181405 0.000000 0
M  V30 40 C 5.724478 -0.714112 0.000000 0
M  V30 41 C 6.224470 0.151901 0.000000 0
M  V30 42 C 7.224456 0.151901 0.000000 0
M  V30 43 C 7.724449 -0.714112 0.000000 0
M  V30 44 C 7.224456 -1.580125 0.000000 0
M  V30 45 C 6.224470 -1.580125 0.000000 0
M  V30 46 C 8.724449 -0.714112 0.000000 0
M  V30 47 O 8.724449 -1.714113 0.000000 0
M  V30 48 C 9.724449 -0.714112 0.000000 0
M  V30 49 C 10.224442 0.151901 0.000000 0
M  V30 50 C 11.224427 0.151901 0.000000 0
M  V30 51 C 11.724420 -0.714112 0.000000 0
M  V30 52 C 11.224427 -1.580125 0.000000 0
M  V30 53 C 10.224442 -1.580125 0.000000 0
M  V30 END ATOM
M  V30 BEGIN BOND
M  V30 1 1 3 4
M  V30 2 2 4 5
M  V30 3 1 4 6
M  V30 4 2 6 7
M  V30 5 1 7 8
M  V30 6 2 8 9
M  V30 7 1 9 10
M  V30 8 2 10 11
M  V30 9 1 11 12
M  V30 10 2 12 13
M  V30 11 1 9 14
M  V30 12 1 14 15
M  V30 13 2 15 16
M  V30 14 1 16 17
M  V30 15 2 17 18
M  V30 16 1 18 19
M  V30 17 2 19 20
M  V30 18 1 18 21
M  V30 19 1 21 22
M  V30 20 2 22 23
M  V30 21 1 23 24
M  V30 22 2 24 25
M  V30 23 1 25 26
M  V30 24 2 26 27
M  V30 25 1 25 28
M  V30 26 1 28 29
M  V30 27 2 29 30
M  V30 28 1 30 31
M  V30 29 2 31 32
M  V30 30 1 32 33
M  V30 31 2 33 34
M  V30 32 1 33 35
M  V30 33 1 35 36
M  V30 34 2 36 37
M  V30 35 1 36 38
M  V30 36 2 38 39
M  V30 37 1 35 40
M  V30 38 2 40 41
M  V30 39 1 41 42
M  V30 40 2 42 43
M  V30 41 1 43 44
M  V30 42 2 44 45
M  V30 43 1 43 46
M  V30 44 2 46 47
M  V30 45 1 46 48
M  V30 46 2 48 49
M  V30 47 1 49 50
M  V30 48 2 50 51
M  V30 49 1 51 52
M  V30 50 2 52 53
M  V30 51 1 12 3
M  V30 52 1 45 40
M  V30 53 1 11 6
M  V30 54 1 53 48
M  V30 55 1 20 15
M  V30 56 1 27 22
M  V30 57 1 39 29
M  V30 58 1 38 32
M  V30 59 1 1 3
M  V30 60 1 2 51
M  V30 END BOND
M  V30 BEGIN SGROUP
M  V30 1 SRU 0 ATOMS=(4 1 2 3 51) CBONDS=(2 59 60) -
M  V30 BRKXYZ=(9 -12.2294 1.8334 0 -12.2294 -3.3960 0 0 0 0) BRKXYZ=(9 12.2244-
M  V30  1.9006 0 12.2244 -3.3288 0 0 0 0)
M  V30 END SGROUP
M  V30 END CTAB
M  END
>  <BIGSMILES_BRACKET_RECORDS_JSON>
{
  "records": [
    {
      "id": 0,
      "bracket_kind": "backbone",
      "pairing_id": "F1/mergedFragments[0]",
      "group_id": "<1:3",
      "ru_midpoint": [
        -0.04349536723995051,
        -0.7584671021907243
      ],
      "bond_midpoint": [
        -12.229366287859818,
        -0.7813079264782378
      ],
      "orientation_vector": [
        0.0,
        1.0
      ],
      "half_bracket_size": 2.6147313062171578,
      "bond": [
        0,
        2
      ],
      "fragment": "F1",
      "backbone": true,
      "suspended_anchor_atom": null,
      "suspended_reason": null,
      "source_label": "F1/mergedFragments[0]",
      "marker_id": "0",
      "side": "left",
      "connection_group": "<1",
      "marker_type_index": 3
    },
    {
      "id": 1,
      "bracket_kind": "backbone",
      "pairing_id": "F1/mergedFragments[0]",
      "group_id": ">1:4",
      "ru_midpoint": [
        -0.04349536723995051,
        -0.7584671021907243
      ],
      "bond_midpoint": [
        12.224420240158233,
        -0.714112324467669
      ],
      "orientation_vector": [
        0.0,
        1.0
      ],
      "half_bracket_size": 2.6147313062171578,
      "bond": [
        1,
        50
      ],
      "fragment": "F1",
      "backbone": true,
      "suspended_anchor_atom": null,
      "suspended_reason": null,
      "source_label": "F1/mergedFragments[0]",
      "marker_id": "52",
      "side": "right",
      "connection_group": ">1",
      "marker_type_index": 4
    }
  ]
}
