
     RDKit          2D

  0  0  0  0  0  0  0  0  0  0999 V3000
M  V30 BEGIN CTAB
M  V30 COUNTS 45 51 1 0 0
M  V30 BEGIN ATOM
M  V30 1 H -10.523880 -0.531232 0.000000 0
M  V30 2 H 10.523481 -1.031257 0.000000 0
M  V30 3 N -9.532984 -0.665866 0.000000 0
M  V30 4 C -9.059596 -1.546548 0.000000 0
M  V30 5 O -9.493880 -2.447254 0.000000 0
M  V30 6 C -8.075506 -1.368457 0.000000 0
M  V30 7 C -7.284694 -1.980405 0.000000 0
M  V30 8 C -6.359276 -1.601655 0.000000 0
M  V30 9 C -6.224643 -0.610759 0.000000 0
M  V30 10 C -7.015428 0.001387 0.000000 0
M  V30 11 C -7.940873 -0.377561 0.000000 0
M  V30 12 C -8.841655 0.056707 0.000000 0
M  V30 13 O -9.019811 1.040592 0.000000 0
M  V30 14 O -5.299166 -0.231956 0.000000 0
M  V30 15 C -4.299166 -0.231956 0.000000 0
M  V30 16 C -3.799173 0.634057 0.000000 0
M  V30 17 C -2.799188 0.634057 0.000000 0
M  V30 18 C -2.299195 -0.231956 0.000000 0
M  V30 19 C -2.799188 -1.097969 0.000000 0
M  V30 20 C -3.799173 -1.097969 0.000000 0
M  V30 21 O -1.299195 -0.231956 0.000000 0
M  V30 22 C -0.299195 -0.231956 0.000000 0
M  V30 23 C 0.200798 0.634057 0.000000 0
M  V30 24 C 1.200784 0.634057 0.000000 0
M  V30 25 C 1.700776 -0.231956 0.000000 0
M  V30 26 C 1.200784 -1.097969 0.000000 0
M  V30 27 C 0.200798 -1.097969 0.000000 0
M  V30 28 O 2.700776 -0.231956 0.000000 0
M  V30 29 C 3.626242 -0.610787 0.000000 0
M  V30 30 C 3.761000 -1.601698 0.000000 0
M  V30 31 C 4.686463 -1.980536 0.000000 0
M  V30 32 C 5.477169 -1.368462 0.000000 0
M  V30 33 C 6.460970 -1.546625 0.000000 0
M  V30 34 O 6.895235 -2.447557 0.000000 0
M  V30 35 N 6.934530 -0.665861 0.000000 0
M  V30 36 C 6.243227 0.056612 0.000000 0
M  V30 37 O 6.421324 1.040425 0.000000 0
M  V30 38 C 5.342596 -0.377627 0.000000 0
M  V30 39 C 4.417133 0.001210 0.000000 0
M  V30 40 C 7.925429 -0.531257 0.000000 0
M  V30 41 C 8.791442 -1.031250 0.000000 0
M  V30 42 C 9.657455 -0.531257 0.000000 0
M  V30 43 C 9.657455 0.468729 0.000000 0
M  V30 44 C 8.791442 0.968721 0.000000 0
M  V30 45 C 7.925429 0.468729 0.000000 0
M  V30 END ATOM
M  V30 BEGIN BOND
M  V30 1 1 3 4
M  V30 2 2 4 5
M  V30 3 1 4 6
M  V30 4 2 6 7
M  V30 5 1 7 8
M  V30 6 2 8 9
M  V30 7 1 9 10
M  V30 8 2 10 11
M  V30 9 1 11 12
M  V30 10 2 12 13
M  V30 11 1 9 14
M  V30 12 1 14 15
M  V30 13 2 15 16
M  V30 14 1 16 17
M  V30 15 2 17 18
M  V30 16 1 18 19
M  V30 17 2 19 20
M  V30 18 1 18 21
M  V30 19 1 21 22
M  V30 20 2 22 23
M  V30 21 1 23 24
M  V30 22 2 24 25
M  V30 23 1 25 26
M  V30 24 2 26 27
M  V30 25 1 25 28
M  V30 26 1 28 29
M  V30 27 2 29 30
M  V30 28 1 30 31
M  V30 29 2 31 32
M  V30 30 1 32 33
M  V30 31 2 33 34
M  V30 32 1 33 35
M  V30 33 1 35 36
M  V30 34 2 36 37
M  V30 35 1 36 38
M  V30 36 2 38 39
M  V30 37 1 35 40
M  V30 38 2 40 41
M  V30 39 1 41 42
M  V30 40 2 42 43
M  V30 41 1 43 44
M  V30 42 2 44 45
M  V30 43 1 12 3
M  V30 44 1 45 40
M  V30 45 1 11 6
M  V30 46 1 20 15
M  V30 47 1 27 22
M  V30 48 1 39 29
M  V30 49 1 38 32
M  V30 50 1 1 3
M  V30 51 1 2 42
M  V30 END BOND
M  V30 BEGIN SGROUP
M  V30 1 SRU 0 ATOMS=(4 1 2 3 42) CBONDS=(2 50 51) -
M  V30 BRKXYZ=(9 -10.0284 2.3507 0 -10.0284 -3.5478 0 0 0 0) BRKXYZ=(9 10.0905-
M  V30  2.1680 0 10.0905 -3.7305 0 0 0 0)
M  V30 END SGROUP
M  V30 END CTAB
M  END
>  <BIGSMILES_BRACKET_RECORDS_JSON>
{
  "records": [
    {
      "id": 0,
      "bracket_kind": "backbone",
      "pairing_id": "F1/mergedFragments[0]",
      "group_id": "<1:3",
      "ru_midpoint": [
        0.24085381587335242,
        -0.5223499058905436
      ],
      "bond_midpoint": [
        -10.028431943206801,
        -0.5985491449026636
      ],
      "orientation_vector": [
        0.0,
        1.0
      ],
      "half_bracket_size": 2.9492572205196703,
      "bond": [
        0,
        2
      ],
      "fragment": "F1",
      "backbone": true,
      "suspended_anchor_atom": null,
      "suspended_reason": null,
      "source_label": "F1/mergedFragments[0]",
      "marker_id": "0",
      "side": "left",
      "connection_group": "<1",
      "marker_type_index": 3
    },
    {
      "id": 1,
      "bracket_kind": "backbone",
      "pairing_id": "F1/mergedFragments[0]",
      "group_id": ">1:4",
      "ru_midpoint": [
        0.24085381587335242,
        -0.5223499058905436
      ],
      "bond_midpoint": [
        10.090468045301787,
        -0.7812570462198885
      ],
      "orientation_vector": [
        0.0,
        1.0
      ],
      "half_bracket_size": 2.9492572205196703,
      "bond": [
        1,
        41
      ],
      "fragment": "F1",
      "backbone": true,
      "suspended_anchor_atom": null,
      "suspended_reason": null,
      "source_label": "F1/mergedFragments[0]",
      "marker_id": "44",
      "side": "right",
      "connection_group": ">1",
      "marker_type_index": 4
    }
  ]
}
