
     RDKit          2D

  0  0  0  0  0  0  0  0  0  0999 V3000
M  V30 BEGIN CTAB
M  V30 COUNTS 40 45 1 0 0
M  V30 BEGIN ATOM
M  V30 1 H -8.255941 0.007716 0.000000 0
M  V30 2 H 8.255542 -0.492496 0.000000 0
M  V30 3 N -7.265066 -0.127072 0.000000 0
M  V30 4 C -6.573539 0.595250 0.000000 0
M  V30 5 O -6.751628 1.579403 0.000000 0
M  V30 6 C -5.672944 0.161174 0.000000 0
M  V30 7 C -4.747512 0.539888 0.000000 0
M  V30 8 C -3.956723 -0.072089 0.000000 0
M  V30 9 C -4.091393 -1.062980 0.000000 0
M  V30 10 C -5.016852 -1.441893 0.000000 0
M  V30 11 C -5.807614 -0.829717 0.000000 0
M  V30 12 C -6.791539 -1.007997 0.000000 0
M  V30 13 O -7.225668 -1.908635 0.000000 0
M  V30 14 C -3.031265 0.306760 0.000000 0
M  V30 15 O -3.031250 1.306760 0.000000 0
M  V30 16 C -2.105817 -0.072116 0.000000 0
M  V30 17 C -1.315012 0.539829 0.000000 0
M  V30 18 C -0.389587 0.161079 0.000000 0
M  V30 19 C 0.511304 0.595296 0.000000 0
M  V30 20 O 0.689509 1.579225 0.000000 0
M  V30 21 N 1.202520 -0.127142 0.000000 0
M  V30 22 C 0.729058 -1.007984 0.000000 0
M  V30 23 O 1.163284 -1.908660 0.000000 0
M  V30 24 C -0.254940 -0.829815 0.000000 0
M  V30 25 C -1.045718 -1.441959 0.000000 0
M  V30 26 C -1.971170 -1.063010 0.000000 0
M  V30 27 C 2.193414 0.007504 0.000000 0
M  V30 28 C 3.059427 -0.492489 0.000000 0
M  V30 29 C 3.925440 0.007504 0.000000 0
M  V30 30 C 3.925440 1.007489 0.000000 0
M  V30 31 C 3.059427 1.507482 0.000000 0
M  V30 32 C 2.193414 1.007489 0.000000 0
M  V30 33 C 4.791465 -0.492496 0.000000 0
M  V30 34 O 4.791465 -1.492428 0.000000 0
M  V30 35 C 5.657490 -0.992496 0.000000 0
M  V30 36 C 6.523503 -0.492504 0.000000 0
M  V30 37 C 7.389516 -0.992496 0.000000 0
M  V30 38 C 7.389516 -1.992482 0.000000 0
M  V30 39 C 6.523503 -2.492475 0.000000 0
M  V30 40 C 5.657490 -1.992482 0.000000 0
M  V30 END ATOM
M  V30 BEGIN BOND
M  V30 1 1 3 4
M  V30 2 2 4 5
M  V30 3 1 4 6
M  V30 4 2 6 7
M  V30 5 1 7 8
M  V30 6 2 8 9
M  V30 7 1 9 10
M  V30 8 2 10 11
M  V30 9 1 11 12
M  V30 10 2 12 13
M  V30 11 1 8 14
M  V30 12 2 14 15
M  V30 13 1 14 16
M  V30 14 2 16 17
M  V30 15 1 17 18
M  V30 16 1 18 19
M  V30 17 2 19 20
M  V30 18 1 19 21
M  V30 19 1 21 22
M  V30 20 2 22 23
M  V30 21 1 22 24
M  V30 22 1 24 25
M  V30 23 2 25 26
M  V30 24 1 21 27
M  V30 25 2 27 28
M  V30 26 1 28 29
M  V30 27 2 29 30
M  V30 28 1 30 31
M  V30 29 2 31 32
M  V30 30 1 29 33
M  V30 31 2 33 34
M  V30 32 1 33 35
M  V30 33 2 35 36
M  V30 34 1 36 37
M  V30 35 2 37 38
M  V30 36 1 38 39
M  V30 37 2 39 40
M  V30 38 1 12 3
M  V30 39 1 32 27
M  V30 40 1 11 6
M  V30 41 1 40 35
M  V30 42 1 26 16
M  V30 43 2 24 18
M  V30 44 1 1 3
M  V30 45 1 2 37
M  V30 END BOND
M  V30 BEGIN SGROUP
M  V30 1 SRU 0 ATOMS=(4 1 2 3 37) CBONDS=(2 44 45) -
M  V30 BRKXYZ=(9 -7.7605 3.9403 0 -7.7605 -4.0596 0 0 0 0) BRKXYZ=(9 7.8225 3.-
M  V30 2575 0 7.8225 -4.7425 0 0 0 0)
M  V30 END SGROUP
M  V30 END CTAB
M  END
>  <BIGSMILES_BRACKET_RECORDS_JSON>
{
  "records": [
    {
      "id": 0,
      "bracket_kind": "backbone",
      "pairing_id": "F1/mergedFragments[0]",
      "group_id": "<1:3",
      "ru_midpoint": [
        0.1380834380396272,
        -0.38446276088775644
      ],
      "bond_midpoint": [
        -7.760503491829638,
        -0.059678430888568126
      ],
      "orientation_vector": [
        0.0,
        1.0
      ],
      "half_bracket_size": 3.9999569770172227,
      "bond": [
        0,
        2
      ],
      "fragment": "F1",
      "backbone": true,
      "suspended_anchor_atom": null,
      "suspended_reason": null,
      "source_label": "F1/mergedFragments[0]",
      "marker_id": "0",
      "side": "left",
      "connection_group": "<1",
      "marker_type_index": 3
    },
    {
      "id": 1,
      "bracket_kind": "backbone",
      "pairing_id": "F1/mergedFragments[0]",
      "group_id": ">1:4",
      "ru_midpoint": [
        0.1380834380396272,
        -0.38446276088775644
      ],
      "bond_midpoint": [
        7.822529160504548,
        -0.7424963601604817
      ],
      "orientation_vector": [
        0.0,
        1.0
      ],
      "half_bracket_size": 3.9999569770172227,
      "bond": [
        1,
        36
      ],
      "fragment": "F1",
      "backbone": true,
      "suspended_anchor_atom": null,
      "suspended_reason": null,
      "source_label": "F1/mergedFragments[0]",
      "marker_id": "39",
      "side": "right",
      "connection_group": ">1",
      "marker_type_index": 4
    }
  ]
}
