
     RDKit          2D

  0  0  0  0  0  0  0  0  0  0999 V3000
M  V30 BEGIN CTAB
M  V30 COUNTS 28 32 1 0 0
M  V30 BEGIN ATOM
M  V30 1 H -4.760256 0.301401 0.000000 0
M  V30 2 H 4.747452 0.801383 0.000000 0
M  V30 3 O -3.894231 0.801401 0.000000 0
M  V30 4 C -3.028205 0.301401 0.000000 0
M  V30 5 C -2.162177 0.801402 0.000000 0
M  V30 6 C -1.296149 0.301401 0.000000 0
M  V30 7 C -1.296149 -0.698602 0.000000 0
M  V30 8 C -2.162177 -1.198604 0.000000 0
M  V30 9 C -3.028205 -0.698602 0.000000 0
M  V30 10 C -0.430123 -1.198602 0.000000 0
M  V30 11 C -1.189681 -1.849043 0.000000 0
M  V30 12 C -0.656452 -2.697309 0.000000 0
M  V30 13 C 0.007136 -3.447601 0.000000 0
M  V30 14 C 0.422085 -4.327298 0.000000 0
M  V30 15 C 1.484949 -4.214006 0.000000 0
M  V30 16 C 1.766255 -3.182491 0.000000 0
M  V30 17 C 0.964492 -2.632408 0.000000 0
M  V30 18 C 0.329434 -1.858242 0.000000 0
M  V30 19 C -0.044489 -2.416133 0.000000 0
M  V30 20 C 0.435902 -0.698602 0.000000 0
M  V30 21 C 0.435902 0.301383 0.000000 0
M  V30 22 C 1.301915 0.801376 0.000000 0
M  V30 23 C 2.167928 0.301383 0.000000 0
M  V30 24 C 2.167928 -0.698602 0.000000 0
M  V30 25 C 1.301915 -1.198595 0.000000 0
M  V30 26 O 3.033953 0.801383 0.000000 0
M  V30 27 C 3.890703 0.306738 0.000000 0
M  V30 28 O 3.887571 -0.689622 0.000000 0
M  V30 END ATOM
M  V30 BEGIN BOND
M  V30 1 1 3 4
M  V30 2 2 4 5
M  V30 3 1 5 6
M  V30 4 2 6 7
M  V30 5 1 7 8
M  V30 6 2 8 9
M  V30 7 1 7 10
M  V30 8 1 10 11
M  V30 9 1 11 12
M  V30 10 1 12 13
M  V30 11 1 13 14
M  V30 12 1 14 15
M  V30 13 1 15 16
M  V30 14 1 16 17
M  V30 15 1 17 18
M  V30 16 1 18 19
M  V30 17 1 10 20
M  V30 18 2 20 21
M  V30 19 1 21 22
M  V30 20 2 22 23
M  V30 21 1 23 24
M  V30 22 2 24 25
M  V30 23 1 23 26
M  V30 24 1 26 27
M  V30 25 2 27 28
M  V30 26 1 9 4
M  V30 27 1 18 10
M  V30 28 1 19 12
M  V30 29 1 17 13
M  V30 30 1 25 20
M  V30 31 1 1 3
M  V30 32 1 2 27
M  V30 END BOND
M  V30 BEGIN SGROUP
M  V30 1 SRU 0 ATOMS=(4 1 2 3 27) CBONDS=(2 31 32) -
M  V30 BRKXYZ=(9 -4.3272 2.5514 0 -4.3272 -1.4486 0 0 0 0) BRKXYZ=(9 4.3191 2.-
M  V30 5541 0 4.3191 -1.4459 0 0 0 0)
M  V30 END SGROUP
M  V30 END CTAB
M  END
>  <BIGSMILES_BRACKET_RECORDS_JSON>
{
  "records": [
    {
      "id": 0,
      "bracket_kind": "backbone",
      "pairing_id": "F1/mergedFragments[0]",
      "group_id": "<1:3",
      "ru_midpoint": [
        -0.14851605825384784,
        -0.5315982291493246
      ],
      "bond_midpoint": [
        -4.327243499434964,
        0.5514008246410134
      ],
      "orientation_vector": [
        0.0,
        1.0
      ],
      "half_bracket_size": 2.0000065971281153,
      "bond": [
        0,
        2
      ],
      "fragment": "F1",
      "backbone": true,
      "suspended_anchor_atom": null,
      "suspended_reason": null,
      "source_label": "F1/mergedFragments[0]",
      "marker_id": "0",
      "side": "left",
      "connection_group": "<1",
      "marker_type_index": 3
    },
    {
      "id": 1,
      "bracket_kind": "backbone",
      "pairing_id": "F1/mergedFragments[0]",
      "group_id": ">1:4",
      "ru_midpoint": [
        -0.14851605825384784,
        -0.5315982291493246
      ],
      "bond_midpoint": [
        4.319077521217434,
        0.5540607160453551
      ],
      "orientation_vector": [
        0.0,
        1.0
      ],
      "half_bracket_size": 2.0000065971281153,
      "bond": [
        1,
        26
      ],
      "fragment": "F1",
      "backbone": true,
      "suspended_anchor_atom": null,
      "suspended_reason": null,
      "source_label": "F1/mergedFragments[0]",
      "marker_id": "27",
      "side": "right",
      "connection_group": ">1",
      "marker_type_index": 4
    }
  ]
}
