
     RDKit          2D

  0  0  0  0  0  0  0  0  0  0999 V3000
M  V30 BEGIN CTAB
M  V30 COUNTS 44 50 1 0 0
M  V30 BEGIN ATOM
M  V30 1 H -10.023894 -0.713897 0.000000 0
M  V30 2 H 10.023495 -0.213954 0.000000 0
M  V30 3 N -9.032999 -0.848531 0.000000 0
M  V30 4 C -8.559610 -1.729213 0.000000 0
M  V30 5 O -8.993894 -2.629918 0.000000 0
M  V30 6 C -7.575521 -1.551121 0.000000 0
M  V30 7 C -6.784709 -2.163070 0.000000 0
M  V30 8 C -5.859291 -1.784320 0.000000 0
M  V30 9 C -5.724658 -0.793424 0.000000 0
M  V30 10 C -6.515443 -0.181278 0.000000 0
M  V30 11 C -7.440888 -0.560226 0.000000 0
M  V30 12 C -8.341669 -0.125958 0.000000 0
M  V30 13 O -8.519825 0.857927 0.000000 0
M  V30 14 O -4.799181 -0.414621 0.000000 0
M  V30 15 C -3.799181 -0.414621 0.000000 0
M  V30 16 C -3.299188 0.451392 0.000000 0
M  V30 17 C -2.299202 0.451392 0.000000 0
M  V30 18 C -1.799209 -0.414621 0.000000 0
M  V30 19 C -2.299202 -1.280634 0.000000 0
M  V30 20 C -3.299188 -1.280634 0.000000 0
M  V30 21 C -0.799209 -0.414621 0.000000 0
M  V30 22 C -0.299217 0.451392 0.000000 0
M  V30 23 C 0.700769 0.451392 0.000000 0
M  V30 24 C 1.200762 -0.414621 0.000000 0
M  V30 25 C 0.700769 -1.280634 0.000000 0
M  V30 26 C -0.299217 -1.280634 0.000000 0
M  V30 27 O 2.200762 -0.414621 0.000000 0
M  V30 28 C 3.126208 -0.793500 0.000000 0
M  V30 29 C 3.260845 -1.784395 0.000000 0
M  V30 30 C 4.186292 -2.163339 0.000000 0
M  V30 31 C 4.977074 -1.551189 0.000000 0
M  V30 32 C 5.960966 -1.729303 0.000000 0
M  V30 33 O 6.395181 -2.630111 0.000000 0
M  V30 34 N 6.434549 -0.848592 0.000000 0
M  V30 35 C 5.743018 -0.126049 0.000000 0
M  V30 36 O 5.921071 0.857917 0.000000 0
M  V30 37 C 4.842437 -0.560294 0.000000 0
M  V30 38 C 3.917017 -0.181548 0.000000 0
M  V30 39 C 7.425444 -0.713954 0.000000 0
M  V30 40 C 8.291457 -0.213961 0.000000 0
M  V30 41 C 9.157470 -0.713954 0.000000 0
M  V30 42 C 9.157470 -1.713939 0.000000 0
M  V30 43 C 8.291457 -2.213932 0.000000 0
M  V30 44 C 7.425444 -1.713939 0.000000 0
M  V30 END ATOM
M  V30 BEGIN BOND
M  V30 1 1 3 4
M  V30 2 2 4 5
M  V30 3 1 4 6
M  V30 4 2 6 7
M  V30 5 1 7 8
M  V30 6 2 8 9
M  V30 7 1 9 10
M  V30 8 2 10 11
M  V30 9 1 11 12
M  V30 10 2 12 13
M  V30 11 1 9 14
M  V30 12 1 14 15
M  V30 13 2 15 16
M  V30 14 1 16 17
M  V30 15 2 17 18
M  V30 16 1 18 19
M  V30 17 2 19 20
M  V30 18 1 18 21
M  V30 19 2 21 22
M  V30 20 1 22 23
M  V30 21 2 23 24
M  V30 22 1 24 25
M  V30 23 2 25 26
M  V30 24 1 24 27
M  V30 25 1 27 28
M  V30 26 2 28 29
M  V30 27 1 29 30
M  V30 28 2 30 31
M  V30 29 1 31 32
M  V30 30 2 32 33
M  V30 31 1 32 34
M  V30 32 1 34 35
M  V30 33 2 35 36
M  V30 34 1 35 37
M  V30 35 2 37 38
M  V30 36 1 34 39
M  V30 37 2 39 40
M  V30 38 1 40 41
M  V30 39 2 41 42
M  V30 40 1 42 43
M  V30 41 2 43 44
M  V30 42 1 12 3
M  V30 43 1 44 39
M  V30 44 1 11 6
M  V30 45 1 20 15
M  V30 46 1 26 21
M  V30 47 1 38 28
M  V30 48 1 37 31
M  V30 49 1 1 3
M  V30 50 1 2 41
M  V30 END BOND
M  V30 BEGIN SGROUP
M  V30 1 SRU 0 ATOMS=(4 1 2 3 41) CBONDS=(2 49 50) -
M  V30 BRKXYZ=(9 -9.5284 1.8841 0 -9.5284 -3.4465 0 0 0 0) BRKXYZ=(9 9.5905 2.-
M  V30 2014 0 9.5905 -3.1293 0 0 0 0)
M  V30 END SGROUP
M  V30 END CTAB
M  END
>  <BIGSMILES_BRACKET_RECORDS_JSON>
{
  "records": [
    {
      "id": 0,
      "bracket_kind": "backbone",
      "pairing_id": "F1/mergedFragments[0]",
      "group_id": "<1:3",
      "ru_midpoint": [
        0.20432575533136454,
        -0.837289217627881
      ],
      "bond_midpoint": [
        -9.528446425044878,
        -0.7812138764343983
      ],
      "orientation_vector": [
        0.0,
        1.0
      ],
      "half_bracket_size": 2.6653244323865346,
      "bond": [
        0,
        2
      ],
      "fragment": "F1",
      "backbone": true,
      "suspended_anchor_atom": null,
      "suspended_reason": null,
      "source_label": "F1/mergedFragments[0]",
      "marker_id": "0",
      "side": "left",
      "connection_group": "<1",
      "marker_type_index": 3
    },
    {
      "id": 1,
      "bracket_kind": "backbone",
      "pairing_id": "F1/mergedFragments[0]",
      "group_id": ">1:4",
      "ru_midpoint": [
        0.20432575533136454,
        -0.837289217627881
      ],
      "bond_midpoint": [
        9.590482527139866,
        -0.46395362918976857
      ],
      "orientation_vector": [
        0.0,
        1.0
      ],
      "half_bracket_size": 2.6653244323865346,
      "bond": [
        1,
        40
      ],
      "fragment": "F1",
      "backbone": true,
      "suspended_anchor_atom": null,
      "suspended_reason": null,
      "source_label": "F1/mergedFragments[0]",
      "marker_id": "43",
      "side": "right",
      "connection_group": ">1",
      "marker_type_index": 4
    }
  ]
}
