
     RDKit          2D

  0  0  0  0  0  0  0  0  0  0999 V3000
M  V30 BEGIN CTAB
M  V30 COUNTS 47 52 1 0 0
M  V30 BEGIN ATOM
M  V30 1 H -8.248417 -0.421799 0.000000 0
M  V30 2 H 8.248018 0.072133 0.000000 0
M  V30 3 N -7.257605 -0.557049 0.000000 0
M  V30 4 C -6.568820 0.164620 0.000000 0
M  V30 5 O -6.746832 1.147520 0.000000 0
M  V30 6 C -5.668599 -0.270654 0.000000 0
M  V30 7 C -4.749002 0.106263 0.000000 0
M  V30 8 C -3.967014 -0.506424 0.000000 0
M  V30 9 C -4.102883 -1.488288 0.000000 0
M  V30 10 C -5.021776 -1.862577 0.000000 0
M  V30 11 C -5.805173 -1.257931 0.000000 0
M  V30 12 C -6.787040 -1.437662 0.000000 0
M  V30 13 O -7.221138 -2.337471 0.000000 0
M  V30 14 C -3.039970 -0.131470 0.000000 0
M  V30 15 C -3.039970 -1.543241 0.000000 0
M  V30 16 F -4.022719 -1.614043 0.000000 0
M  V30 17 F -3.525210 -2.458378 0.000000 0
M  V30 18 F -2.190061 -2.153949 0.000000 0
M  V30 19 C -3.039970 1.002906 0.000000 0
M  V30 20 F -3.990838 1.093352 0.000000 0
M  V30 21 F -3.515267 1.875698 0.000000 0
M  V30 22 F -2.310568 1.492091 0.000000 0
M  V30 23 C -2.113673 -0.508263 0.000000 0
M  V30 24 C -1.320592 0.107422 0.000000 0
M  V30 25 C -0.397941 -0.272700 0.000000 0
M  V30 26 C 0.504119 0.161648 0.000000 0
M  V30 27 O 0.683371 1.144661 0.000000 0
M  V30 28 N 1.193555 -0.561820 0.000000 0
M  V30 29 C 0.720463 -1.443244 0.000000 0
M  V30 30 O 1.153903 -2.343214 0.000000 0
M  V30 31 C -0.262942 -1.263759 0.000000 0
M  V30 32 C -1.052871 -1.875801 0.000000 0
M  V30 33 C -1.976384 -1.496801 0.000000 0
M  V30 34 C 2.184543 -0.427867 0.000000 0
M  V30 35 C 3.050887 0.072317 0.000000 0
M  V30 36 C 3.917232 -0.427867 0.000000 0
M  V30 37 C 3.917232 -1.428236 0.000000 0
M  V30 38 C 3.050887 -1.928420 0.000000 0
M  V30 39 C 2.184543 -1.428236 0.000000 0
M  V30 40 C 4.783257 0.072133 0.000000 0
M  V30 41 O 4.783257 1.072400 0.000000 0
M  V30 42 C 5.649282 -0.427867 0.000000 0
M  V30 43 C 6.515637 0.072323 0.000000 0
M  V30 44 C 7.381993 -0.427867 0.000000 0
M  V30 45 C 7.381993 -1.428248 0.000000 0
M  V30 46 C 6.515637 -1.928438 0.000000 0
M  V30 47 C 5.649282 -1.428248 0.000000 0
M  V30 END ATOM
M  V30 BEGIN BOND
M  V30 1 1 3 4
M  V30 2 2 4 5
M  V30 3 1 4 6
M  V30 4 2 6 7
M  V30 5 1 7 8
M  V30 6 2 8 9
M  V30 7 1 9 10
M  V30 8 2 10 11
M  V30 9 1 11 12
M  V30 10 2 12 13
M  V30 11 1 8 14
M  V30 12 1 14 15
M  V30 13 1 15 16
M  V30 14 1 15 17
M  V30 15 1 15 18
M  V30 16 1 14 19
M  V30 17 1 19 20
M  V30 18 1 19 21
M  V30 19 1 19 22
M  V30 20 1 14 23
M  V30 21 2 23 24
M  V30 22 1 24 25
M  V30 23 1 25 26
M  V30 24 2 26 27
M  V30 25 1 26 28
M  V30 26 1 28 29
M  V30 27 2 29 30
M  V30 28 1 29 31
M  V30 29 1 31 32
M  V30 30 2 32 33
M  V30 31 1 28 34
M  V30 32 2 34 35
M  V30 33 1 35 36
M  V30 34 2 36 37
M  V30 35 1 37 38
M  V30 36 2 38 39
M  V30 37 1 36 40
M  V30 38 2 40 41
M  V30 39 1 40 42
M  V30 40 2 42 43
M  V30 41 1 43 44
M  V30 42 2 44 45
M  V30 43 1 45 46
M  V30 44 2 46 47
M  V30 45 1 12 3
M  V30 46 1 39 34
M  V30 47 1 11 6
M  V30 48 1 47 42
M  V30 49 1 33 23
M  V30 50 2 31 25
M  V30 51 1 1 3
M  V30 52 1 2 44
M  V30 END BOND
M  V30 BEGIN SGROUP
M  V30 1 SRU 0 ATOMS=(4 1 2 3 44) CBONDS=(2 51 52) -
M  V30 BRKXYZ=(9 -7.7530 1.6036 0 -7.7530 -2.5825 0 0 0 0) BRKXYZ=(9 7.8150 1.-
M  V30 9152 0 7.8150 -2.2709 0 0 0 0)
M  V30 END SGROUP
M  V30 END CTAB
M  END
>  <BIGSMILES_BRACKET_RECORDS_JSON>
{
  "records": [
    {
      "id": 0,
      "bracket_kind": "backbone",
      "pairing_id": "F1/mergedFragments[0]",
      "group_id": "<1:3",
      "ru_midpoint": [
        0.13258405906810156,
        -0.7590788836185678
      ],
      "bond_midpoint": [
        -7.7530109938535965,
        -0.48942419347270094
      ],
      "orientation_vector": [
        0.0,
        1.0
      ],
      "half_bracket_size": 2.0930585473727588,
      "bond": [
        0,
        2
      ],
      "fragment": "F1",
      "backbone": true,
      "suspended_anchor_atom": null,
      "suspended_reason": null,
      "source_label": "F1/mergedFragments[0]",
      "marker_id": "0",
      "side": "left",
      "connection_group": "<1",
      "marker_type_index": 3
    },
    {
      "id": 1,
      "bracket_kind": "backbone",
      "pairing_id": "F1/mergedFragments[0]",
      "group_id": ">1:4",
      "ru_midpoint": [
        0.13258405906810156,
        -0.7590788836185678
      ],
      "bond_midpoint": [
        7.815005212010143,
        -0.17786739856131706
      ],
      "orientation_vector": [
        0.0,
        1.0
      ],
      "half_bracket_size": 2.0930585473727588,
      "bond": [
        1,
        43
      ],
      "fragment": "F1",
      "backbone": true,
      "suspended_anchor_atom": null,
      "suspended_reason": null,
      "source_label": "F1/mergedFragments[0]",
      "marker_id": "46",
      "side": "right",
      "connection_group": ">1",
      "marker_type_index": 4
    }
  ]
}
