
     RDKit          2D

  0  0  0  0  0  0  0  0  0  0999 V3000
M  V30 BEGIN CTAB
M  V30 COUNTS 41 47 1 0 0
M  V30 BEGIN ATOM
M  V30 1 H -7.024666 0.564089 0.000000 0
M  V30 2 H 7.024267 0.563859 0.000000 0
M  V30 3 C -6.063878 0.286806 0.000000 0
M  V30 4 C -5.823602 -0.683913 0.000000 0
M  V30 5 C -4.862829 -0.961254 0.000000 0
M  V30 6 C -4.622624 -1.931887 0.000000 0
M  V30 7 C -5.343249 -2.625215 0.000000 0
M  V30 8 C -5.103189 -3.595988 0.000000 0
M  V30 9 C -4.142359 -3.873293 0.000000 0
M  V30 10 C -3.421734 -3.179965 0.000000 0
M  V30 11 C -3.661939 -2.209332 0.000000 0
M  V30 12 C -4.142330 -0.267875 0.000000 0
M  V30 13 C -3.181556 -0.545215 0.000000 0
M  V30 14 C -2.461058 0.148164 0.000000 0
M  V30 15 C -2.701141 1.118827 0.000000 0
M  V30 16 C -3.661915 1.396168 0.000000 0
M  V30 17 C -4.382606 0.702844 0.000000 0
M  V30 18 N -5.343379 0.980185 0.000000 0
M  V30 19 O -1.500294 -0.129203 0.000000 0
M  V30 20 C -0.539498 0.148053 0.000000 0
M  V30 21 C 0.181048 -0.545357 0.000000 0
M  V30 22 C 1.141904 -0.267879 0.000000 0
M  V30 23 C 1.862450 -0.961289 0.000000 0
M  V30 24 C 1.622183 -1.932011 0.000000 0
M  V30 25 C 0.661411 -2.209359 0.000000 0
M  V30 26 C 0.421336 -3.180025 0.000000 0
M  V30 27 C 1.141840 -3.873397 0.000000 0
M  V30 28 C 2.102612 -3.596049 0.000000 0
M  V30 29 C 2.342687 -2.625383 0.000000 0
M  V30 30 C 2.823028 -0.684099 0.000000 0
M  V30 31 C 3.063483 0.286651 0.000000 0
M  V30 32 N 2.342937 0.980062 0.000000 0
M  V30 33 C 1.382220 0.702727 0.000000 0
M  V30 34 C 0.661674 1.396138 0.000000 0
M  V30 35 C -0.299182 1.118659 0.000000 0
M  V30 36 C 4.024293 0.563859 0.000000 0
M  V30 37 C 4.524286 -0.302155 0.000000 0
M  V30 38 C 5.524274 -0.302155 0.000000 0
M  V30 39 C 6.024267 0.563859 0.000000 0
M  V30 40 C 5.524274 1.429874 0.000000 0
M  V30 41 C 4.524286 1.429874 0.000000 0
M  V30 END ATOM
M  V30 BEGIN BOND
M  V30 1 2 3 4
M  V30 2 1 4 5
M  V30 3 1 5 6
M  V30 4 2 6 7
M  V30 5 1 7 8
M  V30 6 2 8 9
M  V30 7 1 9 10
M  V30 8 2 10 11
M  V30 9 2 5 12
M  V30 10 1 12 13
M  V30 11 2 13 14
M  V30 12 1 14 15
M  V30 13 2 15 16
M  V30 14 1 16 17
M  V30 15 2 17 18
M  V30 16 1 14 19
M  V30 17 1 19 20
M  V30 18 2 20 21
M  V30 19 1 21 22
M  V30 20 2 22 23
M  V30 21 1 23 24
M  V30 22 2 24 25
M  V30 23 1 25 26
M  V30 24 2 26 27
M  V30 25 1 27 28
M  V30 26 2 28 29
M  V30 27 1 23 30
M  V30 28 2 30 31
M  V30 29 1 31 32
M  V30 30 2 32 33
M  V30 31 1 33 34
M  V30 32 2 34 35
M  V30 33 1 31 36
M  V30 34 2 36 37
M  V30 35 1 37 38
M  V30 36 2 38 39
M  V30 37 1 39 40
M  V30 38 2 40 41
M  V30 39 1 18 3
M  V30 40 1 41 36
M  V30 41 1 11 6
M  V30 42 1 17 12
M  V30 43 1 35 20
M  V30 44 1 33 22
M  V30 45 1 29 24
M  V30 46 1 1 3
M  V30 47 1 2 39
M  V30 END BOND
M  V30 BEGIN SGROUP
M  V30 1 SRU 0 ATOMS=(4 1 2 3 39) CBONDS=(2 46 47) -
M  V30 BRKXYZ=(9 -6.5443 2.8166 0 -6.5443 -1.9657 0 0 0 0) BRKXYZ=(9 6.5243 2.-
M  V30 9550 0 6.5243 -1.8273 0 0 0 0)
M  V30 END SGROUP
M  V30 END CTAB
M  END
>  <BIGSMILES_BRACKET_RECORDS_JSON>
{
  "records": [
    {
      "id": 0,
      "bracket_kind": "backbone",
      "pairing_id": "F1/mergedFragments[0]",
      "group_id": "<1:3",
      "ru_midpoint": [
        -0.04687052531706293,
        0.3010449994414168
      ],
      "bond_midpoint": [
        -6.54427193827931,
        0.4254475635041703
      ],
      "orientation_vector": [
        0.0,
        1.0
      ],
      "half_bracket_size": 2.3911628421080184,
      "bond": [
        0,
        2
      ],
      "fragment": "F1",
      "backbone": true,
      "suspended_anchor_atom": null,
      "suspended_reason": null,
      "source_label": "F1/mergedFragments[0]",
      "marker_id": "0",
      "side": "left",
      "connection_group": "<1",
      "marker_type_index": 3
    },
    {
      "id": 1,
      "bracket_kind": "backbone",
      "pairing_id": "F1/mergedFragments[0]",
      "group_id": ">1:4",
      "ru_midpoint": [
        -0.04687052531706293,
        0.3010449994414168
      ],
      "bond_midpoint": [
        6.524267177633872,
        0.5638592453231575
      ],
      "orientation_vector": [
        0.0,
        1.0
      ],
      "half_bracket_size": 2.3911628421080184,
      "bond": [
        1,
        38
      ],
      "fragment": "F1",
      "backbone": true,
      "suspended_anchor_atom": null,
      "suspended_reason": null,
      "source_label": "F1/mergedFragments[0]",
      "marker_id": "40",
      "side": "right",
      "connection_group": ">1",
      "marker_type_index": 4
    }
  ]
}
