
     RDKit          2D

  0  0  0  0  0  0  0  0  0  0999 V3000
M  V30 BEGIN CTAB
M  V30 COUNTS 42 47 1 0 0
M  V30 BEGIN ATOM
M  V30 1 H -8.398440 0.618448 0.000000 0
M  V30 2 H 8.263685 0.117986 0.000000 0
M  V30 3 O -7.398440 0.118448 0.000000 0
M  V30 4 C -6.398440 0.118448 0.000000 0
M  V30 5 C -5.898252 0.984799 0.000000 0
M  V30 6 C -4.897877 0.984799 0.000000 0
M  V30 7 C -4.397689 0.118448 0.000000 0
M  V30 8 C -4.897877 -0.747903 0.000000 0
M  V30 9 C -5.898252 -0.747903 0.000000 0
M  V30 10 C -3.397689 0.118448 0.000000 0
M  V30 11 C -2.897509 0.984784 0.000000 0
M  V30 12 C -1.897150 0.984784 0.000000 0
M  V30 13 C -1.396970 0.118448 0.000000 0
M  V30 14 C -1.897150 -0.747889 0.000000 0
M  V30 15 C -2.897509 -0.747889 0.000000 0
M  V30 16 O -0.396970 0.118448 0.000000 0
M  V30 17 C 0.468882 0.618348 0.000000 0
M  V30 18 O 0.468882 1.618280 0.000000 0
M  V30 19 C 1.334907 0.118348 0.000000 0
M  V30 20 C 2.201233 0.618521 0.000000 0
M  V30 21 C 3.067559 0.118348 0.000000 0
M  V30 22 C 3.067559 -0.881999 0.000000 0
M  V30 23 C 2.201233 -1.382172 0.000000 0
M  V30 24 C 1.334907 -0.881999 0.000000 0
M  V30 25 C 3.933584 -1.381999 0.000000 0
M  V30 26 O 4.742199 -1.970338 0.000000 0
M  V30 27 C 4.433243 -2.920682 0.000000 0
M  V30 28 O 5.020399 -3.731118 0.000000 0
M  V30 29 C 3.432161 -2.921662 0.000000 0
M  V30 30 C 2.764600 -3.662747 0.000000 0
M  V30 31 C 1.784758 -3.456994 0.000000 0
M  V30 32 C 1.477315 -2.505635 0.000000 0
M  V30 33 C 2.144769 -1.761640 0.000000 0
M  V30 34 C 3.124970 -1.970431 0.000000 0
M  V30 35 C 4.799610 -0.881999 0.000000 0
M  V30 36 C 4.799610 0.117986 0.000000 0
M  V30 37 C 5.665622 0.617979 0.000000 0
M  V30 38 C 6.531635 0.117986 0.000000 0
M  V30 39 C 6.531635 -0.881999 0.000000 0
M  V30 40 C 5.665622 -1.381991 0.000000 0
M  V30 41 C 7.397660 0.617986 0.000000 0
M  V30 42 O 7.397660 1.618011 0.000000 0
M  V30 END ATOM
M  V30 BEGIN BOND
M  V30 1 1 3 4
M  V30 2 2 4 5
M  V30 3 1 5 6
M  V30 4 2 6 7
M  V30 5 1 7 8
M  V30 6 2 8 9
M  V30 7 1 7 10
M  V30 8 2 10 11
M  V30 9 1 11 12
M  V30 10 2 12 13
M  V30 11 1 13 14
M  V30 12 2 14 15
M  V30 13 1 13 16
M  V30 14 1 16 17
M  V30 15 2 17 18
M  V30 16 1 17 19
M  V30 17 2 19 20
M  V30 18 1 20 21
M  V30 19 2 21 22
M  V30 20 1 22 23
M  V30 21 2 23 24
M  V30 22 1 22 25
M  V30 23 1 25 26
M  V30 24 1 26 27
M  V30 25 2 27 28
M  V30 26 1 27 29
M  V30 27 2 29 30
M  V30 28 1 30 31
M  V30 29 2 31 32
M  V30 30 1 32 33
M  V30 31 2 33 34
M  V30 32 1 25 35
M  V30 33 2 35 36
M  V30 34 1 36 37
M  V30 35 2 37 38
M  V30 36 1 38 39
M  V30 37 2 39 40
M  V30 38 1 38 41
M  V30 39 2 41 42
M  V30 40 1 9 4
M  V30 41 1 24 19
M  V30 42 1 15 10
M  V30 43 1 34 25
M  V30 44 1 34 29
M  V30 45 1 40 35
M  V30 46 1 1 3
M  V30 47 1 2 41
M  V30 END BOND
M  V30 BEGIN SGROUP
M  V30 1 SRU 0 ATOMS=(4 1 2 3 41) CBONDS=(2 46 47) -
M  V30 BRKXYZ=(9 -7.8984 2.7354 0 -7.8984 -1.9985 0 0 0 0) BRKXYZ=(9 7.8307 2.-
M  V30 7350 0 7.8307 -1.9990 0 0 0 0)
M  V30 END SGROUP
M  V30 END CTAB
M  END
>  <BIGSMILES_BRACKET_RECORDS_JSON>
{
  "records": [
    {
      "id": 0,
      "bracket_kind": "backbone",
      "pairing_id": "F1/mergedFragments[0]",
      "group_id": "<1:3",
      "ru_midpoint": [
        0.07601540050026584,
        -0.10756524914730384
      ],
      "bond_midpoint": [
        -7.898440242662403,
        0.3684479788492929
      ],
      "orientation_vector": [
        0.0,
        1.0
      ],
      "half_bracket_size": 2.3669709386735027,
      "bond": [
        0,
        2
      ],
      "fragment": "F1",
      "backbone": true,
      "suspended_anchor_atom": null,
      "suspended_reason": null,
      "source_label": "F1/mergedFragments[0]",
      "marker_id": "0",
      "side": "left",
      "connection_group": "<1",
      "marker_type_index": 3
    },
    {
      "id": 1,
      "bracket_kind": "backbone",
      "pairing_id": "F1/mergedFragments[0]",
      "group_id": ">1:4",
      "ru_midpoint": [
        0.07601540050026584,
        -0.10756524914730384
      ],
      "bond_midpoint": [
        7.830672667617741,
        0.36798624989029083
      ],
      "orientation_vector": [
        0.0,
        1.0
      ],
      "half_bracket_size": 2.3669709386735027,
      "bond": [
        1,
        40
      ],
      "fragment": "F1",
      "backbone": true,
      "suspended_anchor_atom": null,
      "suspended_reason": null,
      "source_label": "F1/mergedFragments[0]",
      "marker_id": "41",
      "side": "right",
      "connection_group": ">1",
      "marker_type_index": 4
    }
  ]
}
