
     RDKit          2D

  0  0  0  0  0  0  0  0  0  0999 V3000
M  V30 BEGIN CTAB
M  V30 COUNTS 47 54 1 0 0
M  V30 BEGIN ATOM
M  V30 1 H -8.524614 0.564095 0.000000 0
M  V30 2 H 8.524215 0.563938 0.000000 0
M  V30 3 C -7.563852 0.286720 0.000000 0
M  V30 4 C -7.323778 -0.683946 0.000000 0
M  V30 5 C -6.363006 -0.961295 0.000000 0
M  V30 6 C -6.122787 -1.932028 0.000000 0
M  V30 7 C -6.843154 -2.625335 0.000000 0
M  V30 8 C -6.602934 -3.596068 0.000000 0
M  V30 9 C -5.642203 -3.873355 0.000000 0
M  V30 10 C -4.921692 -3.179909 0.000000 0
M  V30 11 C -5.161912 -2.209176 0.000000 0
M  V30 12 C -5.642502 -0.267922 0.000000 0
M  V30 13 C -4.681730 -0.545271 0.000000 0
M  V30 14 C -3.961034 0.148045 0.000000 0
M  V30 15 C -4.201301 1.118767 0.000000 0
M  V30 16 C -5.162072 1.396116 0.000000 0
M  V30 17 C -5.882576 0.702743 0.000000 0
M  V30 18 N -6.843348 0.980092 0.000000 0
M  V30 19 O -3.000272 -0.129330 0.000000 0
M  V30 20 C -2.039506 0.148031 0.000000 0
M  V30 21 C -1.318945 -0.545364 0.000000 0
M  V30 22 C -0.358095 -0.267864 0.000000 0
M  V30 23 C 0.362466 -0.961258 0.000000 0
M  V30 24 C 0.122244 -1.931888 0.000000 0
M  V30 25 C -0.838569 -2.209091 0.000000 0
M  V30 26 C -1.078982 -3.179777 0.000000 0
M  V30 27 C -0.358583 -3.873258 0.000000 0
M  V30 28 C 0.602287 -3.596246 0.000000 0
M  V30 29 C 0.842700 -2.625561 0.000000 0
M  V30 30 C 1.323038 -0.684046 0.000000 0
M  V30 31 C 1.563471 0.286709 0.000000 0
M  V30 32 N 0.842910 0.980103 0.000000 0
M  V30 33 C -0.117945 0.702886 0.000000 0
M  V30 34 C -0.838645 1.396137 0.000000 0
M  V30 35 C -1.799356 1.118781 0.000000 0
M  V30 36 C 2.524275 0.563938 0.000000 0
M  V30 37 C 3.024269 -0.302076 0.000000 0
M  V30 38 C 4.024256 -0.302076 0.000000 0
M  V30 39 C 4.524249 0.563938 0.000000 0
M  V30 40 C 4.024256 1.429953 0.000000 0
M  V30 41 C 3.024269 1.429953 0.000000 0
M  V30 42 C 5.524249 0.563938 0.000000 0
M  V30 43 C 6.024241 -0.302072 0.000000 0
M  V30 44 C 7.024224 -0.302072 0.000000 0
M  V30 45 C 7.524215 0.563938 0.000000 0
M  V30 46 C 7.024224 1.429949 0.000000 0
M  V30 47 C 6.024241 1.429949 0.000000 0
M  V30 END ATOM
M  V30 BEGIN BOND
M  V30 1 2 3 4
M  V30 2 1 4 5
M  V30 3 1 5 6
M  V30 4 2 6 7
M  V30 5 1 7 8
M  V30 6 2 8 9
M  V30 7 1 9 10
M  V30 8 2 10 11
M  V30 9 2 5 12
M  V30 10 1 12 13
M  V30 11 2 13 14
M  V30 12 1 14 15
M  V30 13 2 15 16
M  V30 14 1 16 17
M  V30 15 2 17 18
M  V30 16 1 14 19
M  V30 17 1 19 20
M  V30 18 2 20 21
M  V30 19 1 21 22
M  V30 20 2 22 23
M  V30 21 1 23 24
M  V30 22 2 24 25
M  V30 23 1 25 26
M  V30 24 2 26 27
M  V30 25 1 27 28
M  V30 26 2 28 29
M  V30 27 1 23 30
M  V30 28 2 30 31
M  V30 29 1 31 32
M  V30 30 2 32 33
M  V30 31 1 33 34
M  V30 32 2 34 35
M  V30 33 1 31 36
M  V30 34 2 36 37
M  V30 35 1 37 38
M  V30 36 2 38 39
M  V30 37 1 39 40
M  V30 38 2 40 41
M  V30 39 1 39 42
M  V30 40 2 42 43
M  V30 41 1 43 44
M  V30 42 2 44 45
M  V30 43 1 45 46
M  V30 44 2 46 47
M  V30 45 1 18 3
M  V30 46 1 41 36
M  V30 47 1 11 6
M  V30 48 1 47 42
M  V30 49 1 17 12
M  V30 50 1 35 20
M  V30 51 1 33 22
M  V30 52 1 29 24
M  V30 53 1 1 3
M  V30 54 1 2 45
M  V30 END BOND
M  V30 BEGIN SGROUP
M  V30 1 SRU 0 ATOMS=(4 1 2 3 45) CBONDS=(2 53 54) -
M  V30 BRKXYZ=(9 -8.0442 2.8167 0 -8.0442 -1.9658 0 0 0 0) BRKXYZ=(9 8.0242 2.-
M  V30 9552 0 8.0242 -1.8273 0 0 0 0)
M  V30 END SGROUP
M  V30 END CTAB
M  END
>  <BIGSMILES_BRACKET_RECORDS_JSON>
{
  "records": [
    {
      "id": 0,
      "bracket_kind": "backbone",
      "pairing_id": "F1/mergedFragments[0]",
      "group_id": "<1:3",
      "ru_midpoint": [
        -0.07758598858776722,
        0.34611786362692865
      ],
      "bond_midpoint": [
        -8.044233215850388,
        0.4254072917186334
      ],
      "orientation_vector": [
        0.0,
        1.0
      ],
      "half_bracket_size": 2.3912473431575156,
      "bond": [
        0,
        2
      ],
      "fragment": "F1",
      "backbone": true,
      "suspended_anchor_atom": null,
      "suspended_reason": null,
      "source_label": "F1/mergedFragments[0]",
      "marker_id": "0",
      "side": "left",
      "connection_group": "<1",
      "marker_type_index": 3
    },
    {
      "id": 1,
      "bracket_kind": "backbone",
      "pairing_id": "F1/mergedFragments[0]",
      "group_id": ">1:4",
      "ru_midpoint": [
        -0.07758598858776722,
        0.34611786362692865
      ],
      "bond_midpoint": [
        8.024215219682654,
        0.5639381652052364
      ],
      "orientation_vector": [
        0.0,
        1.0
      ],
      "half_bracket_size": 2.3912473431575156,
      "bond": [
        1,
        44
      ],
      "fragment": "F1",
      "backbone": true,
      "suspended_anchor_atom": null,
      "suspended_reason": null,
      "source_label": "F1/mergedFragments[0]",
      "marker_id": "46",
      "side": "right",
      "connection_group": ">1",
      "marker_type_index": 4
    }
  ]
}
