
     RDKit          2D

  0  0  0  0  0  0  0  0  0  0999 V3000
M  V30 BEGIN CTAB
M  V30 COUNTS 52 59 1 0 0
M  V30 BEGIN ATOM
M  V30 1 H -8.227897 -0.449106 0.000000 0
M  V30 2 H 8.227516 0.051745 0.000000 0
M  V30 3 C -7.361871 0.050894 0.000000 0
M  V30 4 O -7.361871 1.050919 0.000000 0
M  V30 5 C -6.495846 -0.449106 0.000000 0
M  V30 6 C -5.629833 0.050887 0.000000 0
M  V30 7 C -4.763821 -0.449106 0.000000 0
M  V30 8 C -4.763821 -1.449091 0.000000 0
M  V30 9 C -5.629833 -1.949083 0.000000 0
M  V30 10 C -6.495846 -1.449091 0.000000 0
M  V30 11 C -3.897796 -1.949091 0.000000 0
M  V30 12 O -3.089150 -2.537387 0.000000 0
M  V30 13 C -3.397966 -3.487653 0.000000 0
M  V30 14 O -2.810914 -4.297930 0.000000 0
M  V30 15 C -4.399110 -3.488390 0.000000 0
M  V30 16 C -5.066710 -4.229441 0.000000 0
M  V30 17 C -6.046731 -4.023698 0.000000 0
M  V30 18 C -6.354124 -3.072323 0.000000 0
M  V30 19 C -5.686440 -2.328300 0.000000 0
M  V30 20 C -4.706441 -2.537205 0.000000 0
M  V30 21 C -3.031770 -1.449091 0.000000 0
M  V30 22 C -3.031770 -0.448773 0.000000 0
M  V30 23 C -2.165469 0.051386 0.000000 0
M  V30 24 C -1.299169 -0.448773 0.000000 0
M  V30 25 C -1.299169 -1.449091 0.000000 0
M  V30 26 C -2.165469 -1.949250 0.000000 0
M  V30 27 C -0.433143 0.051227 0.000000 0
M  V30 28 O -0.433143 1.051159 0.000000 0
M  V30 29 O 0.432709 -0.448673 0.000000 0
M  V30 30 C 1.298735 0.051327 0.000000 0
M  V30 31 C 1.298735 1.051703 0.000000 0
M  V30 32 C 2.165085 1.551891 0.000000 0
M  V30 33 C 3.031436 1.051703 0.000000 0
M  V30 34 C 3.031436 0.051327 0.000000 0
M  V30 35 C 2.165085 -0.448861 0.000000 0
M  V30 36 C 3.897462 1.551703 0.000000 0
M  V30 37 O 3.089202 2.140530 0.000000 0
M  V30 38 C 3.396311 3.091735 0.000000 0
M  V30 39 O 2.809387 3.900550 0.000000 0
M  V30 40 C 4.398832 3.091589 0.000000 0
M  V30 41 C 5.066362 3.837046 0.000000 0
M  V30 42 C 6.043863 3.628391 0.000000 0
M  V30 43 C 6.354423 2.677626 0.000000 0
M  V30 44 C 5.684187 1.934651 0.000000 0
M  V30 45 C 4.705721 2.140466 0.000000 0
M  V30 46 C 4.763487 1.051703 0.000000 0
M  V30 47 C 5.629476 1.551682 0.000000 0
M  V30 48 C 6.495465 1.051703 0.000000 0
M  V30 49 C 6.495465 0.051745 0.000000 0
M  V30 50 C 5.629476 -0.448234 0.000000 0
M  V30 51 C 4.763487 0.051745 0.000000 0
M  V30 52 O 7.361491 -0.448255 0.000000 0
M  V30 END ATOM
M  V30 BEGIN BOND
M  V30 1 2 3 4
M  V30 2 1 3 5
M  V30 3 2 5 6
M  V30 4 1 6 7
M  V30 5 2 7 8
M  V30 6 1 8 9
M  V30 7 2 9 10
M  V30 8 1 8 11
M  V30 9 1 11 12
M  V30 10 1 12 13
M  V30 11 2 13 14
M  V30 12 1 13 15
M  V30 13 2 15 16
M  V30 14 1 16 17
M  V30 15 2 17 18
M  V30 16 1 18 19
M  V30 17 2 19 20
M  V30 18 1 11 21
M  V30 19 2 21 22
M  V30 20 1 22 23
M  V30 21 2 23 24
M  V30 22 1 24 25
M  V30 23 2 25 26
M  V30 24 1 24 27
M  V30 25 2 27 28
M  V30 26 1 27 29
M  V30 27 1 29 30
M  V30 28 2 30 31
M  V30 29 1 31 32
M  V30 30 2 32 33
M  V30 31 1 33 34
M  V30 32 2 34 35
M  V30 33 1 33 36
M  V30 34 1 36 37
M  V30 35 1 37 38
M  V30 36 2 38 39
M  V30 37 1 38 40
M  V30 38 2 40 41
M  V30 39 1 41 42
M  V30 40 2 42 43
M  V30 41 1 43 44
M  V30 42 2 44 45
M  V30 43 1 36 46
M  V30 44 2 46 47
M  V30 45 1 47 48
M  V30 46 2 48 49
M  V30 47 1 49 50
M  V30 48 2 50 51
M  V30 49 1 49 52
M  V30 50 1 10 5
M  V30 51 1 35 30
M  V30 52 1 20 11
M  V30 53 1 45 36
M  V30 54 1 20 15
M  V30 55 1 45 40
M  V30 56 1 26 21
M  V30 57 1 51 46
M  V30 58 1 1 3
M  V30 59 1 2 52
M  V30 END BOND
M  V30 BEGIN SGROUP
M  V30 1 SRU 0 ATOMS=(4 1 2 3 52) CBONDS=(2 58 59) -
M  V30 BRKXYZ=(9 -7.7949 3.3020 0 -7.7949 -3.7002 0 0 0 0) BRKXYZ=(9 7.7945 3.-
M  V30 3029 0 7.7945 -3.6994 0 0 0 0)
M  V30 END SGROUP
M  V30 END CTAB
M  END
>  <BIGSMILES_BRACKET_RECORDS_JSON>
{
  "records": [
    {
      "id": 0,
      "bracket_kind": "backbone",
      "pairing_id": "F1/mergedFragments[0]",
      "group_id": "<1:3",
      "ru_midpoint": [
        -0.00018736496915305878,
        -0.19869727728356035
      ],
      "bond_midpoint": [
        -7.794883914386583,
        -0.19910569933139655
      ],
      "orientation_vector": [
        0.0,
        1.0
      ],
      "half_bracket_size": 3.501140431311059,
      "bond": [
        0,
        2
      ],
      "fragment": "F1",
      "backbone": true,
      "suspended_anchor_atom": null,
      "suspended_reason": null,
      "source_label": "F1/mergedFragments[0]",
      "marker_id": "0",
      "side": "left",
      "connection_group": "<1",
      "marker_type_index": 3
    },
    {
      "id": 1,
      "bracket_kind": "backbone",
      "pairing_id": "F1/mergedFragments[0]",
      "group_id": ">1:4",
      "ru_midpoint": [
        -0.00018736496915305878,
        -0.19869727728356035
      ],
      "bond_midpoint": [
        7.794503250996293,
        -0.1982552139944287
      ],
      "orientation_vector": [
        0.0,
        1.0
      ],
      "half_bracket_size": 3.501140431311059,
      "bond": [
        1,
        51
      ],
      "fragment": "F1",
      "backbone": true,
      "suspended_anchor_atom": null,
      "suspended_reason": null,
      "source_label": "F1/mergedFragments[0]",
      "marker_id": "51",
      "side": "right",
      "connection_group": ">1",
      "marker_type_index": 4
    }
  ]
}
