
     RDKit          2D

  0  0  0  0  0  0  0  0  0  0999 V3000
M  V30 BEGIN CTAB
M  V30 COUNTS 8 7 1 0 0
M  V30 BEGIN ATOM
M  V30 1 H -1.299501 -0.448502 0.000000 0
M  V30 2 H 1.299102 0.051302 0.000000 0
M  V30 3 C -0.433300 0.051302 0.000000 0
M  V30 4 F -0.433300 1.051285 0.000000 0
M  V30 5 F -0.433300 -0.948765 0.000000 0
M  V30 6 C 0.432901 -0.448502 0.000000 0
M  V30 7 Cl 0.432901 -1.448485 0.000000 0
M  V30 8 F 0.432901 0.551565 0.000000 0
M  V30 END ATOM
M  V30 BEGIN BOND
M  V30 1 1 3 4
M  V30 2 1 3 5
M  V30 3 1 3 6
M  V30 4 1 6 7
M  V30 5 1 6 8
M  V30 6 1 1 3
M  V30 7 1 2 6
M  V30 END BOND
M  V30 BEGIN SGROUP
M  V30 1 SRU 0 ATOMS=(4 1 2 3 6) CBONDS=(2 6 7) -
M  V30 BRKXYZ=(9 -0.8664 0.3012 0 -0.8664 -0.6984 0 0 0 0) BRKXYZ=(9 0.8660 0.-
M  V30 3012 0 0.8660 -0.6984 0 0 0 0)
M  V30 END SGROUP
M  V30 END CTAB
M  END
>  <BIGSMILES_BRACKET_RECORDS_JSON>
{
  "records": [
    {
      "id": 0,
      "bracket_kind": "backbone",
      "pairing_id": "F1/fragments[0]",
      "group_id": "<1:3",
      "ru_midpoint": [
        -0.00019943418023105064,
        -0.19860000000000008
      ],
      "bond_midpoint": [
        -0.8664006340314327,
        -0.19860000000000005
      ],
      "orientation_vector": [
        0.0,
        1.0
      ],
      "half_bracket_size": 0.4998044031181984,
      "bond": [
        0,
        2
      ],
      "fragment": "F1",
      "backbone": true,
      "suspended_anchor_atom": null,
      "suspended_reason": null,
      "source_label": "F1/fragments[0]",
      "marker_id": "0",
      "side": "left",
      "connection_group": "<1",
      "marker_type_index": 3
    },
    {
      "id": 1,
      "bracket_kind": "backbone",
      "pairing_id": "F1/fragments[0]",
      "group_id": ">1:4",
      "ru_midpoint": [
        -0.00019943418023105064,
        -0.19860000000000008
      ],
      "bond_midpoint": [
        0.8660017656709704,
        -0.19860000000000005
      ],
      "orientation_vector": [
        0.0,
        1.0
      ],
      "half_bracket_size": 0.4998044031181984,
      "bond": [
        1,
        5
      ],
      "fragment": "F1",
      "backbone": true,
      "suspended_anchor_atom": null,
      "suspended_reason": null,
      "source_label": "F1/fragments[0]",
      "marker_id": "7",
      "side": "right",
      "connection_group": ">1",
      "marker_type_index": 4
    }
  ]
}
