
     RDKit          2D

  0  0  0  0  0  0  0  0  0  0999 V3000
M  V30 BEGIN CTAB
M  V30 COUNTS 20 21 1 0 0
M  V30 BEGIN ATOM
M  V30 1 H -5.433158 -0.131652 0.000000 0
M  V30 2 H 5.432790 -0.631530 0.000000 0
M  V30 3 N -4.433158 -0.631652 0.000000 0
M  V30 4 C -3.433158 -0.631652 0.000000 0
M  V30 5 C -2.933131 0.234420 0.000000 0
M  V30 6 C -1.933077 0.234420 0.000000 0
M  V30 7 C -1.433050 -0.631652 0.000000 0
M  V30 8 C -1.933077 -1.497724 0.000000 0
M  V30 9 C -2.933131 -1.497724 0.000000 0
M  V30 10 N -0.433050 -0.631652 0.000000 0
M  V30 11 C 0.432840 -0.131530 0.000000 0
M  V30 12 O 0.173935 0.834379 0.000000 0
M  V30 13 C 1.432840 -0.131530 0.000000 0
M  V30 14 C 1.932827 0.734474 0.000000 0
M  V30 15 C 2.932802 0.734474 0.000000 0
M  V30 16 C 3.432790 -0.131530 0.000000 0
M  V30 17 C 2.932802 -0.997534 0.000000 0
M  V30 18 C 1.932827 -0.997534 0.000000 0
M  V30 19 C 4.432790 -0.131530 0.000000 0
M  V30 20 O 4.691620 -1.097497 0.000000 0
M  V30 END ATOM
M  V30 BEGIN BOND
M  V30 1 1 3 4
M  V30 2 2 4 5
M  V30 3 1 5 6
M  V30 4 2 6 7
M  V30 5 1 7 8
M  V30 6 2 8 9
M  V30 7 1 7 10
M  V30 8 1 10 11
M  V30 9 2 11 12
M  V30 10 1 11 13
M  V30 11 2 13 14
M  V30 12 1 14 15
M  V30 13 2 15 16
M  V30 14 1 16 17
M  V30 15 2 17 18
M  V30 16 1 16 19
M  V30 17 2 19 20
M  V30 18 1 9 4
M  V30 19 1 18 13
M  V30 20 1 1 3
M  V30 21 1 2 19
M  V30 END BOND
M  V30 BEGIN SGROUP
M  V30 1 SRU 0 ATOMS=(4 1 2 3 19) CBONDS=(2 20 21) -
M  V30 BRKXYZ=(9 -4.9332 1.8505 0 -4.9332 -2.6139 0 0 0 0) BRKXYZ=(9 4.9328 1.-
M  V30 8507 0 4.9328 -2.6137 0 0 0 0)
M  V30 END SGROUP
M  V30 END CTAB
M  END
>  <BIGSMILES_BRACKET_RECORDS_JSON>
{
  "records": [
    {
      "id": 0,
      "bracket_kind": "backbone",
      "pairing_id": "F1/mergedFragments[0]",
      "group_id": "<1:3",
      "ru_midpoint": [
        -0.0001507183527210687,
        -0.3815922372643554
      ],
      "bond_midpoint": [
        -4.933157985358783,
        -0.38165227691793724
      ],
      "orientation_vector": [
        0.0,
        1.0
      ],
      "half_bracket_size": 2.2321981154055957,
      "bond": [
        0,
        2
      ],
      "fragment": "F1",
      "backbone": true,
      "suspended_anchor_atom": null,
      "suspended_reason": null,
      "source_label": "F1/mergedFragments[0]",
      "marker_id": "0",
      "side": "left",
      "connection_group": "<1",
      "marker_type_index": 3
    },
    {
      "id": 1,
      "bracket_kind": "backbone",
      "pairing_id": "F1/mergedFragments[0]",
      "group_id": ">1:4",
      "ru_midpoint": [
        -0.0001507183527210687,
        -0.3815922372643554
      ],
      "bond_midpoint": [
        4.932790033330177,
        -0.38153021432716017
      ],
      "orientation_vector": [
        0.0,
        1.0
      ],
      "half_bracket_size": 2.2321981154055957,
      "bond": [
        1,
        18
      ],
      "fragment": "F1",
      "backbone": true,
      "suspended_anchor_atom": null,
      "suspended_reason": null,
      "source_label": "F1/mergedFragments[0]",
      "marker_id": "19",
      "side": "right",
      "connection_group": ">1",
      "marker_type_index": 4
    }
  ]
}
