
     RDKit          2D

  0  0  0  0  0  0  0  0  0  0999 V3000
M  V30 BEGIN CTAB
M  V30 COUNTS 31 35 1 0 0
M  V30 BEGIN ATOM
M  V30 1 H -6.724862 -0.564072 0.000000 0
M  V30 2 H 6.724463 -0.564284 0.000000 0
M  V30 3 N -5.733988 -0.698860 0.000000 0
M  V30 4 C -5.042460 0.023463 0.000000 0
M  V30 5 O -5.220422 1.007445 0.000000 0
M  V30 6 C -4.141893 -0.410812 0.000000 0
M  V30 7 C -3.216434 -0.031899 0.000000 0
M  V30 8 C -2.425645 -0.643876 0.000000 0
M  V30 9 C -2.560315 -1.634767 0.000000 0
M  V30 10 C -3.485774 -2.013680 0.000000 0
M  V30 11 C -4.276563 -1.401703 0.000000 0
M  V30 12 C -5.260461 -1.579784 0.000000 0
M  V30 13 O -5.694758 -2.480552 0.000000 0
M  V30 14 O -1.500186 -0.265028 0.000000 0
M  V30 15 C -0.574739 -0.643903 0.000000 0
M  V30 16 C 0.216066 -0.031958 0.000000 0
M  V30 17 C 1.141491 -0.410709 0.000000 0
M  V30 18 C 2.042382 0.023509 0.000000 0
M  V30 19 O 2.220587 1.007438 0.000000 0
M  V30 20 N 2.733598 -0.698929 0.000000 0
M  V30 21 C 2.260137 -1.579771 0.000000 0
M  V30 22 O 2.694362 -2.480448 0.000000 0
M  V30 23 C 1.276139 -1.401602 0.000000 0
M  V30 24 C 0.485361 -2.013746 0.000000 0
M  V30 25 C -0.440092 -1.634797 0.000000 0
M  V30 26 C 3.724492 -0.564284 0.000000 0
M  V30 27 C 4.224485 0.301729 0.000000 0
M  V30 28 C 5.224471 0.301729 0.000000 0
M  V30 29 C 5.724463 -0.564284 0.000000 0
M  V30 30 C 5.224471 -1.430297 0.000000 0
M  V30 31 C 4.224485 -1.430297 0.000000 0
M  V30 END ATOM
M  V30 BEGIN BOND
M  V30 1 1 3 4
M  V30 2 2 4 5
M  V30 3 1 4 6
M  V30 4 2 6 7
M  V30 5 1 7 8
M  V30 6 2 8 9
M  V30 7 1 9 10
M  V30 8 2 10 11
M  V30 9 1 11 12
M  V30 10 2 12 13
M  V30 11 1 8 14
M  V30 12 1 14 15
M  V30 13 2 15 16
M  V30 14 1 16 17
M  V30 15 1 17 18
M  V30 16 2 18 19
M  V30 17 1 18 20
M  V30 18 1 20 21
M  V30 19 2 21 22
M  V30 20 1 21 23
M  V30 21 1 23 24
M  V30 22 2 24 25
M  V30 23 1 20 26
M  V30 24 2 26 27
M  V30 25 1 27 28
M  V30 26 2 28 29
M  V30 27 1 29 30
M  V30 28 2 30 31
M  V30 29 1 12 3
M  V30 30 1 31 26
M  V30 31 1 11 6
M  V30 32 1 25 15
M  V30 33 2 23 17
M  V30 34 1 1 3
M  V30 35 1 2 29
M  V30 END BOND
M  V30 BEGIN SGROUP
M  V30 1 SRU 0 ATOMS=(4 1 2 3 29) CBONDS=(2 34 35) -
M  V30 BRKXYZ=(9 -6.2294 1.6840 0 -6.2294 -2.9469 0 0 0 0) BRKXYZ=(9 6.2245 1.-
M  V30 7512 0 6.2245 -2.8798 0 0 0 0)
M  V30 END SGROUP
M  V30 END CTAB
M  END
>  <BIGSMILES_BRACKET_RECORDS_JSON>
{
  "records": [
    {
      "id": 0,
      "bracket_kind": "backbone",
      "pairing_id": "F1/mergedFragments[0]",
      "group_id": "<1:3",
      "ru_midpoint": [
        -0.005811339594680831,
        -0.7986263143760735
      ],
      "bond_midpoint": [
        -6.229425076920535,
        -0.6314656434783834
      ],
      "orientation_vector": [
        0.0,
        1.0
      ],
      "half_bracket_size": 2.3154753752789112,
      "bond": [
        0,
        2
      ],
      "fragment": "F1",
      "backbone": true,
      "suspended_anchor_atom": null,
      "suspended_reason": null,
      "source_label": "F1/mergedFragments[0]",
      "marker_id": "0",
      "side": "left",
      "connection_group": "<1",
      "marker_type_index": 3
    },
    {
      "id": 1,
      "bracket_kind": "backbone",
      "pairing_id": "F1/mergedFragments[0]",
      "group_id": ">1:4",
      "ru_midpoint": [
        -0.005811339594680831,
        -0.7986263143760735
      ],
      "bond_midpoint": [
        6.224463447487661,
        -0.5642835727502975
      ],
      "orientation_vector": [
        0.0,
        1.0
      ],
      "half_bracket_size": 2.3154753752789112,
      "bond": [
        1,
        28
      ],
      "fragment": "F1",
      "backbone": true,
      "suspended_anchor_atom": null,
      "suspended_reason": null,
      "source_label": "F1/mergedFragments[0]",
      "marker_id": "30",
      "side": "right",
      "connection_group": ">1",
      "marker_type_index": 4
    }
  ]
}
