
     RDKit          2D

  0  0  0  0  0  0  0  0  0  0999 V3000
M  V30 BEGIN CTAB
M  V30 COUNTS 53 61 1 0 0
M  V30 BEGIN ATOM
M  V30 1 H -7.024559 0.564161 0.000000 0
M  V30 2 H 7.024160 0.564015 0.000000 0
M  V30 3 C -6.063815 0.286727 0.000000 0
M  V30 4 C -5.823800 -0.683953 0.000000 0
M  V30 5 C -6.544414 -1.377211 0.000000 0
M  V30 6 C -7.505159 -1.099727 0.000000 0
M  V30 7 C -8.225725 -1.793179 0.000000 0
M  V30 8 C -7.985595 -2.763922 0.000000 0
M  V30 9 C -7.024898 -3.041212 0.000000 0
M  V30 10 C -6.304284 -2.347954 0.000000 0
M  V30 11 C -4.863045 -0.961361 0.000000 0
M  V30 12 C -4.622885 -1.932109 0.000000 0
M  V30 13 C -5.343439 -2.625511 0.000000 0
M  V30 14 C -5.103135 -3.596120 0.000000 0
M  V30 15 C -4.142421 -3.873466 0.000000 0
M  V30 16 C -3.421867 -3.180064 0.000000 0
M  V30 17 C -3.662027 -2.209316 0.000000 0
M  V30 18 C -4.142498 -0.268033 0.000000 0
M  V30 19 C -3.181744 -0.545441 0.000000 0
M  V30 20 C -2.460949 0.148023 0.000000 0
M  V30 21 C -2.701156 1.118759 0.000000 0
M  V30 22 C -3.661910 1.396167 0.000000 0
M  V30 23 C -4.382513 0.702647 0.000000 0
M  V30 24 N -5.343267 0.980055 0.000000 0
M  V30 25 O -1.500190 -0.129363 0.000000 0
M  V30 26 C -0.539437 0.148042 0.000000 0
M  V30 27 C 0.181156 -0.545320 0.000000 0
M  V30 28 C 1.141854 -0.267919 0.000000 0
M  V30 29 C 1.862447 -0.961281 0.000000 0
M  V30 30 C 1.622270 -1.931921 0.000000 0
M  V30 31 C 0.661470 -2.209169 0.000000 0
M  V30 32 C 0.421101 -3.179865 0.000000 0
M  V30 33 C 1.141533 -3.873313 0.000000 0
M  V30 34 C 2.102333 -3.596065 0.000000 0
M  V30 35 C 2.342702 -2.625369 0.000000 0
M  V30 36 C 2.823007 -0.684024 0.000000 0
M  V30 37 C 3.543511 -1.377478 0.000000 0
M  V30 38 C 3.303378 -2.348162 0.000000 0
M  V30 39 C 4.024021 -3.041471 0.000000 0
M  V30 40 C 4.984653 -2.763958 0.000000 0
M  V30 41 C 5.224786 -1.793273 0.000000 0
M  V30 42 C 4.504282 -1.099820 0.000000 0
M  V30 43 C 3.063395 0.286742 0.000000 0
M  V30 44 N 2.342802 0.980103 0.000000 0
M  V30 45 C 1.381960 0.702842 0.000000 0
M  V30 46 C 0.661511 1.396064 0.000000 0
M  V30 47 C -0.299332 1.118803 0.000000 0
M  V30 48 C 4.024186 0.564015 0.000000 0
M  V30 49 C 4.524179 -0.301999 0.000000 0
M  V30 50 C 5.524167 -0.301999 0.000000 0
M  V30 51 C 6.024160 0.564015 0.000000 0
M  V30 52 C 5.524167 1.430030 0.000000 0
M  V30 53 C 4.524179 1.430030 0.000000 0
M  V30 END ATOM
M  V30 BEGIN BOND
M  V30 1 2 3 4
M  V30 2 1 4 5
M  V30 3 2 5 6
M  V30 4 1 6 7
M  V30 5 2 7 8
M  V30 6 1 8 9
M  V30 7 2 9 10
M  V30 8 1 4 11
M  V30 9 1 11 12
M  V30 10 2 12 13
M  V30 11 1 13 14
M  V30 12 2 14 15
M  V30 13 1 15 16
M  V30 14 2 16 17
M  V30 15 2 11 18
M  V30 16 1 18 19
M  V30 17 2 19 20
M  V30 18 1 20 21
M  V30 19 2 21 22
M  V30 20 1 22 23
M  V30 21 2 23 24
M  V30 22 1 20 25
M  V30 23 1 25 26
M  V30 24 2 26 27
M  V30 25 1 27 28
M  V30 26 2 28 29
M  V30 27 1 29 30
M  V30 28 2 30 31
M  V30 29 1 31 32
M  V30 30 2 32 33
M  V30 31 1 33 34
M  V30 32 2 34 35
M  V30 33 1 29 36
M  V30 34 1 36 37
M  V30 35 2 37 38
M  V30 36 1 38 39
M  V30 37 2 39 40
M  V30 38 1 40 41
M  V30 39 2 41 42
M  V30 40 2 36 43
M  V30 41 1 43 44
M  V30 42 2 44 45
M  V30 43 1 45 46
M  V30 44 2 46 47
M  V30 45 1 43 48
M  V30 46 2 48 49
M  V30 47 1 49 50
M  V30 48 2 50 51
M  V30 49 1 51 52
M  V30 50 2 52 53
M  V30 51 1 24 3
M  V30 52 1 53 48
M  V30 53 1 10 5
M  V30 54 1 17 12
M  V30 55 1 23 18
M  V30 56 1 47 26
M  V30 57 1 45 28
M  V30 58 1 35 30
M  V30 59 1 42 37
M  V30 60 1 1 3
M  V30 61 1 2 51
M  V30 END BOND
M  V30 BEGIN SGROUP
M  V30 1 SRU 0 ATOMS=(4 1 2 3 51) CBONDS=(2 60 61) -
M  V30 BRKXYZ=(9 -6.5442 2.8168 0 -6.5442 -1.9659 0 0 0 0) BRKXYZ=(9 6.5242 2.-
M  V30 9554 0 6.5242 -1.8274 0 0 0 0)
M  V30 END SGROUP
M  V30 END CTAB
M  END
>  <BIGSMILES_BRACKET_RECORDS_JSON>
{
  "records": [
    {
      "id": 0,
      "bracket_kind": "backbone",
      "pairing_id": "F1/mergedFragments[0]",
      "group_id": "<1:3",
      "ru_midpoint": [
        -0.04692707407589225,
        0.30105340641736866
      ],
      "bond_midpoint": [
        -6.544186939584467,
        0.4254442183799423
      ],
      "orientation_vector": [
        0.0,
        1.0
      ],
      "half_bracket_size": 2.3913910752080243,
      "bond": [
        0,
        2
      ],
      "fragment": "F1",
      "backbone": true,
      "suspended_anchor_atom": null,
      "suspended_reason": null,
      "source_label": "F1/mergedFragments[0]",
      "marker_id": "0",
      "side": "left",
      "connection_group": "<1",
      "marker_type_index": 3
    },
    {
      "id": 1,
      "bracket_kind": "backbone",
      "pairing_id": "F1/mergedFragments[0]",
      "group_id": ">1:4",
      "ru_midpoint": [
        -0.04692707407589225,
        0.30105340641736866
      ],
      "bond_midpoint": [
        6.52416041280617,
        0.5640154259718202
      ],
      "orientation_vector": [
        0.0,
        1.0
      ],
      "half_bracket_size": 2.3913910752080243,
      "bond": [
        1,
        50
      ],
      "fragment": "F1",
      "backbone": true,
      "suspended_anchor_atom": null,
      "suspended_reason": null,
      "source_label": "F1/mergedFragments[0]",
      "marker_id": "52",
      "side": "right",
      "connection_group": ">1",
      "marker_type_index": 4
    }
  ]
}
