
     RDKit          2D

  0  0  0  0  0  0  0  0  0  0999 V3000
M  V30 BEGIN CTAB
M  V30 COUNTS 7 6 1 0 0
M  V30 BEGIN ATOM
M  V30 1 Cl 2.597619 -0.823660 0.000000 0
M  V30 2 C 3.463624 -0.323560 0.000000 0
M  V30 3 C 4.329620 -0.823660 0.000000 0
M  V30 4 Cl 7.793889 -0.823607 0.000000 0
M  V30 5 O 5.195681 -0.323722 0.000000 0
M  V30 6 C 6.061686 -0.823623 0.000000 0
M  V30 7 C 6.927797 -0.323722 0.000000 0
M  V30 END ATOM
M  V30 BEGIN BOND
M  V30 1 1 1 2
M  V30 2 1 2 3
M  V30 3 1 5 6
M  V30 4 1 6 7
M  V30 5 1 3 5
M  V30 6 1 4 7
M  V30 END BOND
M  V30 BEGIN SGROUP
M  V30 1 SRU 0 ATOMS=(4 3 4 5 7) CBONDS=(2 5 6) -
M  V30 BRKXYZ=(9 4.7627 -1.0736 0 4.7627 -0.0738 0 0 0 0) BRKXYZ=(9 7.3608 -1.-
M  V30 0736 0 7.3608 -0.0738 0 0 0 0)
M  V30 END SGROUP
M  V30 END CTAB
M  END
>  <BIGSMILES_BRACKET_RECORDS_JSON>
{
  "records": [
    {
      "id": 0,
      "bracket_kind": "backbone",
      "pairing_id": "F1/fragments[0]",
      "group_id": "<1:3",
      "ru_midpoint": [
        6.0617532826535365,
        -0.6236624747487869
      ],
      "bond_midpoint": [
        4.762650638333412,
        -0.5736912571137498
      ],
      "orientation_vector": [
        0.0,
        -1.0
      ],
      "half_bracket_size": 0.49990016001536197,
      "bond": [
        2,
        4
      ],
      "fragment": "F1",
      "backbone": true,
      "suspended_anchor_atom": null,
      "suspended_reason": null,
      "source_label": "F1/fragments[0]",
      "marker_id": "0",
      "side": "left",
      "connection_group": "<1",
      "marker_type_index": 3
    },
    {
      "id": 1,
      "bracket_kind": "backbone",
      "pairing_id": "F1/fragments[0]",
      "group_id": ">1:4",
      "ru_midpoint": [
        6.0617532826535365,
        -0.6236624747487869
      ],
      "bond_midpoint": [
        7.360843312947749,
        -0.5736644607285932
      ],
      "orientation_vector": [
        0.0,
        -1.0
      ],
      "half_bracket_size": 0.49990016001536197,
      "bond": [
        3,
        6
      ],
      "fragment": "F1",
      "backbone": true,
      "suspended_anchor_atom": null,
      "suspended_reason": null,
      "source_label": "F1/fragments[0]",
      "marker_id": "4",
      "side": "right",
      "connection_group": ">1",
      "marker_type_index": 4
    }
  ]
}
