
     RDKit          2D

  0  0  0  0  0  0  0  0  0  0999 V3000
M  V30 BEGIN CTAB
M  V30 COUNTS 7 6 1 0 0
M  V30 BEGIN ATOM
M  V30 1 O -2.598057 -0.390706 0.000000 0
M  V30 2 C 0.865751 -0.390760 0.000000 0
M  V30 3 C 1.731862 0.109140 0.000000 0
M  V30 4 O 2.597982 -0.390760 0.000000 0
M  V30 5 C -1.732080 0.109378 0.000000 0
M  V30 6 C -0.866084 -0.390722 0.000000 0
M  V30 7 O -0.000195 0.109378 0.000000 0
M  V30 END ATOM
M  V30 BEGIN BOND
M  V30 1 1 2 3
M  V30 2 1 3 4
M  V30 3 1 5 6
M  V30 4 1 6 7
M  V30 5 1 1 5
M  V30 6 1 2 7
M  V30 END BOND
M  V30 BEGIN SGROUP
M  V30 1 SRU 0 ATOMS=(4 1 2 5 7) CBONDS=(2 5 6) -
M  V30 BRKXYZ=(9 -2.1651 -0.6408 0 -2.1651 0.3594 0 0 0 0) BRKXYZ=(9 0.4328 -0-
M  V30 .6408 0 0.4328 0.3594 0 0 0 0)
M  V30 END SGROUP
M  V30 END CTAB
M  END
>  <BIGSMILES_BRACKET_RECORDS_JSON>
{
  "records": [
    {
      "id": 0,
      "bracket_kind": "backbone",
      "pairing_id": "F1/fragments[0]",
      "group_id": "<1:3",
      "ru_midpoint": [
        -0.8661515788135699,
        -0.19068232662450568
      ],
      "bond_midpoint": [
        -2.165068403098517,
        -0.1406643094110004
      ],
      "orientation_vector": [
        0.0,
        -1.0
      ],
      "half_bracket_size": 0.5001001599500253,
      "bond": [
        0,
        4
      ],
      "fragment": "F1",
      "backbone": true,
      "suspended_anchor_atom": null,
      "suspended_reason": null,
      "source_label": "F1/fragments[0]",
      "marker_id": "0",
      "side": "left",
      "connection_group": "<1",
      "marker_type_index": 3
    },
    {
      "id": 1,
      "bracket_kind": "backbone",
      "pairing_id": "F1/fragments[0]",
      "group_id": ">1:4",
      "ru_midpoint": [
        -0.8661515788135699,
        -0.19068232662450568
      ],
      "bond_midpoint": [
        0.43277784879899184,
        -0.14069111651684793
      ],
      "orientation_vector": [
        0.0,
        -1.0
      ],
      "half_bracket_size": 0.5001001599500253,
      "bond": [
        1,
        6
      ],
      "fragment": "F1",
      "backbone": true,
      "suspended_anchor_atom": null,
      "suspended_reason": null,
      "source_label": "F1/fragments[0]",
      "marker_id": "4",
      "side": "right",
      "connection_group": ">1",
      "marker_type_index": 4
    }
  ]
}
