
     RDKit          2D

  0  0  0  0  0  0  0  0  0  0999 V3000
M  V30 BEGIN CTAB
M  V30 COUNTS 12 13 1 0 0
M  V30 BEGIN ATOM
M  V30 1 C -3.531657 -0.802912 0.000000 0
M  V30 2 C -2.531556 -0.802912 0.000000 0
M  V30 3 O -3.031606 -1.669025 0.000000 0
M  V30 4 C -1.665530 -0.302912 0.000000 0
M  V30 5 O -0.799526 -0.803012 0.000000 0
M  V30 6 C 2.798336 -0.302928 0.000000 0
M  V30 7 C 3.664300 0.197178 0.000000 0
M  V30 8 O 4.664401 0.197301 0.000000 0
M  V30 9 C 4.164245 1.063352 0.000000 0
M  V30 10 C 0.066451 -0.302928 0.000000 0
M  V30 11 C 0.932447 -0.803028 0.000000 0
M  V30 12 O 1.798336 -0.302928 0.000000 0
M  V30 END ATOM
M  V30 BEGIN BOND
M  V30 1 1 1 2
M  V30 2 1 2 3
M  V30 3 1 2 4
M  V30 4 1 4 5
M  V30 5 1 6 7
M  V30 6 1 7 8
M  V30 7 1 7 9
M  V30 8 1 3 1
M  V30 9 1 9 8
M  V30 10 1 10 11
M  V30 11 1 11 12
M  V30 12 1 5 10
M  V30 13 1 6 12
M  V30 END BOND
M  V30 BEGIN SGROUP
M  V30 1 SRU 0 ATOMS=(4 5 6 10 12) CBONDS=(2 12 13) -
M  V30 BRKXYZ=(9 -0.3665 -1.0531 0 -0.3665 -0.0529 0 0 0 0) BRKXYZ=(9 2.2983 --
M  V30 0.8030 0 2.2983 0.1972 0 0 0 0)
M  V30 END SGROUP
M  V30 END CTAB
M  END
>  <BIGSMILES_BRACKET_RECORDS_JSON>
{
  "records": [
    {
      "id": 0,
      "bracket_kind": "backbone",
      "pairing_id": "F1/fragments[0]",
      "group_id": "<1:3",
      "ru_midpoint": [
        0.932379471016997,
        -0.6029878082664986
      ],
      "bond_midpoint": [
        -0.3665373532679503,
        -0.5529697910529934
      ],
      "orientation_vector": [
        0.0,
        -1.0
      ],
      "half_bracket_size": 0.5001001599500253,
      "bond": [
        4,
        9
      ],
      "fragment": "F1",
      "backbone": true,
      "suspended_anchor_atom": null,
      "suspended_reason": null,
      "source_label": "F1/fragments[0]",
      "marker_id": "0",
      "side": "left",
      "connection_group": "<1",
      "marker_type_index": 3
    },
    {
      "id": 1,
      "bracket_kind": "backbone",
      "pairing_id": "F1/fragments[0]",
      "group_id": ">1:4",
      "ru_midpoint": [
        0.932379471016997,
        -0.6029878082664986
      ],
      "bond_midpoint": [
        2.298335975314995,
        -0.3029277122964835
      ],
      "orientation_vector": [
        0.0,
        -1.0
      ],
      "half_bracket_size": 0.5001001599500253,
      "bond": [
        5,
        11
      ],
      "fragment": "F1",
      "backbone": true,
      "suspended_anchor_atom": null,
      "suspended_reason": null,
      "source_label": "F1/fragments[0]",
      "marker_id": "4",
      "side": "right",
      "connection_group": ">1",
      "marker_type_index": 4
    }
  ]
}
