
     RDKit          2D

  0  0  0  0  0  0  0  0  0  0999 V3000
M  V30 BEGIN CTAB
M  V30 COUNTS 33 33 2 0 0
M  V30 BEGIN ATOM
M  V30 1 C 4.504386 -1.571927 0.000000 0
M  V30 2 C 5.370433 -1.071914 0.000000 0
M  V30 3 C 5.370433 -2.071846 0.000000 0
M  V30 4 C 5.370433 -0.071982 0.000000 0
M  V30 5 C 7.968389 -1.571986 0.000000 0
M  V30 6 C 8.834320 -1.071974 0.000000 0
M  V30 7 C 8.834320 -2.071974 0.000000 0
M  V30 8 C 9.700260 -1.571986 0.000000 0
M  V30 9 S 10.566306 -1.071974 0.000000 0
M  V30 10 C 11.432362 -1.571986 0.000000 0
M  V30 11 C 12.298408 -1.071974 0.000000 0
M  V30 12 N 13.164464 -1.571986 0.000000 0
M  V30 13 H 16.628341 -1.572024 0.000000 0
M  V30 14 C 6.236407 -1.572002 0.000000 0
M  V30 15 C 7.102412 -1.071902 0.000000 0
M  V30 16 C 7.102412 -2.071827 0.000000 0
M  V30 17 C 7.102412 -0.071877 0.000000 0
M  V30 18 C 14.030480 -1.071970 0.000000 0
M  V30 19 O 14.030502 -0.072038 0.000000 0
M  V30 20 C 14.896409 -1.571986 0.000000 0
M  V30 21 C 14.896409 -2.571987 0.000000 0
M  V30 22 C 15.762409 -3.072080 0.000000 0
M  V30 23 C 15.762409 -4.072080 0.000000 0
M  V30 24 O 14.896409 -4.571987 0.000000 0
M  V30 25 O 16.628410 -4.571973 0.000000 0
M  V30 26 C 16.628410 -5.571973 0.000000 0
M  V30 27 C 17.494410 -6.072066 0.000000 0
M  V30 28 C 18.360410 -5.572159 0.000000 0
M  V30 29 C 19.226411 -6.072052 0.000000 0
M  V30 30 C 19.226411 -7.072052 0.000000 0
M  V30 31 C 18.360410 -7.571959 0.000000 0
M  V30 32 C 17.494410 -7.072066 0.000000 0
M  V30 33 N 15.762347 -1.071970 0.000000 0
M  V30 END ATOM
M  V30 BEGIN BOND
M  V30 1 1 1 2
M  V30 2 1 2 3
M  V30 3 1 2 4
M  V30 4 1 5 6
M  V30 5 1 6 7
M  V30 6 1 6 8
M  V30 7 1 8 9
M  V30 8 1 9 10
M  V30 9 1 10 11
M  V30 10 1 11 12
M  V30 11 1 14 15
M  V30 12 1 15 16
M  V30 13 1 15 17
M  V30 14 1 2 14
M  V30 15 1 5 15
M  V30 16 2 18 19
M  V30 17 1 18 20
M  V30 18 1 20 21
M  V30 19 1 21 22
M  V30 20 1 22 23
M  V30 21 2 23 24
M  V30 22 1 23 25
M  V30 23 1 25 26
M  V30 24 1 26 27
M  V30 25 2 27 28
M  V30 26 1 28 29
M  V30 27 2 29 30
M  V30 28 1 30 31
M  V30 29 2 31 32
M  V30 30 1 20 33
M  V30 31 1 32 27
M  V30 32 1 12 18
M  V30 33 1 13 33
M  V30 END BOND
M  V30 BEGIN SGROUP
M  V30 1 SRU 0 ATOMS=(4 12 13 18 33) CBONDS=(2 32 33) -
M  V30 BRKXYZ=(9 13.5975 -0.8220 0 13.5975 -1.8220 0 0 0 0) BRKXYZ=(9 16.1953 -
M  V30 -0.8220 0 16.1953 -1.8220 0 0 0 0)
M  V30 2 SRU 0 ATOMS=(4 2 5 14 15) CBONDS=(2 14 15) -
M  V30 BRKXYZ=(9 5.8034 -1.8221 0 5.8034 -0.8219 0 0 0 0) BRKXYZ=(9 7.5354 -1.-
M  V30 8220 0 7.5354 -0.8218 0 0 0 0)
M  V30 END SGROUP
M  V30 END CTAB
M  END
>  <BIGSMILES_BRACKET_RECORDS_JSON>
{
  "records": [
    {
      "id": 0,
      "bracket_kind": "backbone",
      "pairing_id": "F2/fragments[0]",
      "group_id": ">1:4",
      "ru_midpoint": [
        14.896395015347235,
        -1.3719798520942406
      ],
      "bond_midpoint": [
        13.597471737506265,
        -1.321978172307445
      ],
      "orientation_vector": [
        0.0,
        1.0
      ],
      "half_bracket_size": 0.5000159978427492,
      "bond": [
        11,
        17
      ],
      "fragment": "F2",
      "backbone": true,
      "suspended_anchor_atom": null,
      "suspended_reason": null,
      "source_label": "F2/fragments[0]",
      "marker_id": "0",
      "side": "left",
      "connection_group": ">1",
      "marker_type_index": 4
    },
    {
      "id": 1,
      "bracket_kind": "backbone",
      "pairing_id": "F2/fragments[0]",
      "group_id": "<1:3",
      "ru_midpoint": [
        14.896395015347235,
        -1.3719798520942406
      ],
      "bond_midpoint": [
        16.195343904150178,
        -1.3219970550324582
      ],
      "orientation_vector": [
        0.0,
        1.0
      ],
      "half_bracket_size": 0.5000159978427492,
      "bond": [
        12,
        32
      ],
      "fragment": "F2",
      "backbone": true,
      "suspended_anchor_atom": null,
      "suspended_reason": null,
      "source_label": "F2/fragments[0]",
      "marker_id": "17",
      "side": "right",
      "connection_group": "<1",
      "marker_type_index": 3
    },
    {
      "id": 2,
      "bracket_kind": "backbone",
      "pairing_id": "F1/fragments[0]",
      "group_id": "$a:2",
      "ru_midpoint": [
        6.6694116209544925,
        -1.321952013688291
      ],
      "bond_midpoint": [
        5.8034198964439385,
        -1.3219581796951836
      ],
      "orientation_vector": [
        0.0,
        -1.0
      ],
      "half_bracket_size": 0.500100159950025,
      "bond": [
        1,
        13
      ],
      "fragment": "F1",
      "backbone": true,
      "suspended_anchor_atom": null,
      "suspended_reason": null,
      "source_label": "F1/fragments[0]",
      "marker_id": "0",
      "side": "left",
      "connection_group": "$a",
      "marker_type_index": 2
    },
    {
      "id": 3,
      "bracket_kind": "backbone",
      "pairing_id": "F1/fragments[0]",
      "group_id": "$a:2",
      "ru_midpoint": [
        6.6694116209544925,
        -1.321952013688291
      ],
      "bond_midpoint": [
        7.535400167394053,
        -1.3219440124697885
      ],
      "orientation_vector": [
        0.0,
        -1.0
      ],
      "half_bracket_size": 0.500100159950025,
      "bond": [
        4,
        14
      ],
      "fragment": "F1",
      "backbone": true,
      "suspended_anchor_atom": null,
      "suspended_reason": null,
      "source_label": "F1/fragments[0]",
      "marker_id": "5",
      "side": "right",
      "connection_group": "$a",
      "marker_type_index": 2
    }
  ]
}
