
     RDKit          2D

  0  0  0  0  0  0  0  0  0  0999 V3000
M  V30 BEGIN CTAB
M  V30 COUNTS 15 14 1 0 0
M  V30 BEGIN ATOM
M  V30 1 C -3.464181 -0.503138 0.000000 0
M  V30 2 C -2.598184 -0.003238 0.000000 0
M  V30 3 Si -1.732180 -0.503138 0.000000 0 VAL=4
M  V30 4 C -1.732180 0.496887 0.000000 0
M  V30 5 C -1.732180 -1.503070 0.000000 0
M  V30 6 O 0.865776 -0.003066 0.000000 0
M  V30 7 Si 1.731772 -0.502966 0.000000 0 VAL=4
M  V30 8 C 1.731772 -1.502991 0.000000 0
M  V30 9 C 1.731772 0.496966 0.000000 0
M  V30 10 C 2.597777 -0.003066 0.000000 0
M  V30 11 C 3.463773 -0.502966 0.000000 0
M  V30 12 O -0.866205 -0.003050 0.000000 0
M  V30 13 Si -0.000201 -0.503150 0.000000 0 VAL=4
M  V30 14 C -0.000201 0.496775 0.000000 0
M  V30 15 C -0.000201 -1.503175 0.000000 0
M  V30 END ATOM
M  V30 BEGIN BOND
M  V30 1 2 1 2
M  V30 2 1 2 3
M  V30 3 1 3 4
M  V30 4 1 3 5
M  V30 5 1 6 7
M  V30 6 1 7 8
M  V30 7 1 7 9
M  V30 8 1 7 10
M  V30 9 2 10 11
M  V30 10 1 12 13
M  V30 11 1 13 14
M  V30 12 1 13 15
M  V30 13 1 3 12
M  V30 14 1 6 13
M  V30 END BOND
M  V30 BEGIN SGROUP
M  V30 1 SRU 0 ATOMS=(4 3 6 12 13) CBONDS=(2 13 14) -
M  V30 BRKXYZ=(9 -1.2992 0.2470 0 -1.2992 -0.7532 0 0 0 0) BRKXYZ=(9 0.4328 0.-
M  V30 2470 0 0.4328 -0.7532 0 0 0 0)
M  V30 END SGROUP
M  V30 END CTAB
M  END
>  <BIGSMILES_BRACKET_RECORDS_JSON>
{
  "records": [
    {
      "id": 0,
      "bracket_kind": "backbone",
      "pairing_id": "F1/fragments[0]",
      "group_id": "<1:3",
      "ru_midpoint": [
        -0.43320098729741424,
        -0.25310016001536195
      ],
      "bond_midpoint": [
        -1.2991927118079685,
        -0.2530939940084694
      ],
      "orientation_vector": [
        0.0,
        1.0
      ],
      "half_bracket_size": 0.500100159950025,
      "bond": [
        2,
        11
      ],
      "fragment": "F1",
      "backbone": true,
      "suspended_anchor_atom": null,
      "suspended_reason": null,
      "source_label": "F1/fragments[0]",
      "marker_id": "0",
      "side": "left",
      "connection_group": "<1",
      "marker_type_index": 3
    },
    {
      "id": 1,
      "bracket_kind": "backbone",
      "pairing_id": "F1/fragments[0]",
      "group_id": ">1:4",
      "ru_midpoint": [
        -0.43320098729741424,
        -0.25310016001536195
      ],
      "bond_midpoint": [
        0.43278755914214573,
        -0.2531081612338647
      ],
      "orientation_vector": [
        0.0,
        1.0
      ],
      "half_bracket_size": 0.500100159950025,
      "bond": [
        5,
        12
      ],
      "fragment": "F1",
      "backbone": true,
      "suspended_anchor_atom": null,
      "suspended_reason": null,
      "source_label": "F1/fragments[0]",
      "marker_id": "5",
      "side": "right",
      "connection_group": ">1",
      "marker_type_index": 4
    }
  ]
}
