
     RDKit          2D

  0  0  0  0  0  0  0  0  0  0999 V3000
M  V30 BEGIN CTAB
M  V30 COUNTS 21 21 4 0 0
M  V30 BEGIN ATOM
M  V30 1 C 2.424791 -0.402640 0.000000 0
M  V30 2 C 3.290787 0.097460 0.000000 0
M  V30 3 C 4.156792 -0.402640 0.000000 0
M  V30 4 C 4.156792 -1.402641 0.000000 0
M  V30 5 H 11.951010 0.097296 0.000000 0
M  V30 6 C 5.022814 0.097366 0.000000 0
M  V30 7 C 5.888773 -0.402641 0.000000 0
M  V30 8 C 5.888773 -1.402643 0.000000 0
M  V30 9 C 5.022571 -1.902577 0.000000 0
M  V30 10 C 5.022771 -2.902578 0.000000 0
M  V30 11 C 5.888573 -3.402648 0.000000 0
M  V30 12 C 6.754775 -2.902714 0.000000 0
M  V30 13 C 6.754575 -1.902713 0.000000 0
M  V30 14 C 6.754834 0.097297 0.000000 0
M  V30 15 C 7.620839 -0.402604 0.000000 0
M  V30 16 C 8.486835 0.097297 0.000000 0
M  V30 17 C 9.352839 -0.402604 0.000000 0
M  V30 18 C 10.218922 0.097297 0.000000 0
M  V30 19 C 11.084927 -0.402604 0.000000 0
M  V30 20 C 11.084927 -1.402628 0.000000 0
M  V30 21 C 10.218774 -1.902472 0.000000 0
M  V30 END ATOM
M  V30 BEGIN BOND
M  V30 1 1 1 2
M  V30 2 1 2 3
M  V30 3 1 3 4
M  V30 4 1 6 7
M  V30 5 1 7 8
M  V30 6 1 8 9
M  V30 7 1 9 10
M  V30 8 1 10 11
M  V30 9 1 11 12
M  V30 10 1 12 13
M  V30 11 1 13 8
M  V30 12 1 3 6
M  V30 13 1 14 15
M  V30 14 1 15 16
M  V30 15 1 16 17
M  V30 16 1 18 19
M  V30 17 1 19 20
M  V30 18 1 20 21
M  V30 19 1 17 18
M  V30 20 1 7 14
M  V30 21 1 5 19
M  V30 END BOND
M  V30 BEGIN SGROUP
M  V30 1 SRU 0 ATOMS=(4 7 14 17 18) CBONDS=(2 19 20) -
M  V30 BRKXYZ=(9 6.3218 0.3472 0 6.3218 -0.6526 0 0 0 0) BRKXYZ=(9 9.7859 0.34-
M  V30 72 0 9.7859 -0.6526 0 0 0 0)
M  V30 2 SRU 0 ATOMS=(4 5 17 18 19) CBONDS=(2 19 21) -
M  V30 BRKXYZ=(9 9.7859 0.3472 0 9.7859 -0.6526 0 0 0 0) BRKXYZ=(9 11.5180 0.3-
M  V30 472 0 11.5180 -0.6526 0 0 0 0)
M  V30 3 SRU 0 ATOMS=(4 5 7 14 19) CBONDS=(2 20 21) -
M  V30 BRKXYZ=(9 6.3218 1.8471 0 6.3218 -2.1524 0 0 0 0) BRKXYZ=(9 11.5180 1.8-
M  V30 471 0 11.5180 -2.1524 0 0 0 0)
M  V30 4 SRU 0 ATOMS=(4 3 6 7 14) CBONDS=(2 12 20) -
M  V30 BRKXYZ=(9 4.5898 0.3474 0 4.5898 -0.6526 0 0 0 0) BRKXYZ=(9 6.3218 0.34-
M  V30 73 0 6.3218 -0.6527 0 0 0 0)
M  V30 END SGROUP
M  V30 END CTAB
M  END
>  <BIGSMILES_BRACKET_RECORDS_JSON>
{
  "records": [
    {
      "id": 0,
      "bracket_kind": "backbone",
      "pairing_id": "F2/fragments[0]",
      "group_id": "$a:2",
      "ru_midpoint": [
        8.05383680239898,
        -0.1526535143104923
      ],
      "bond_midpoint": [
        6.321803671448446,
        -0.1526723126769914
      ],
      "orientation_vector": [
        0.0,
        1.0
      ],
      "half_bracket_size": 0.49990016001536275,
      "bond": [
        6,
        13
      ],
      "fragment": "F2",
      "backbone": true,
      "suspended_anchor_atom": null,
      "suspended_reason": null,
      "source_label": "F2/fragments[0]",
      "marker_id": "0",
      "side": "left",
      "connection_group": "$a",
      "marker_type_index": 2
    },
    {
      "id": 1,
      "bracket_kind": "backbone",
      "pairing_id": "F2/fragments[0]",
      "group_id": "$a:2",
      "ru_midpoint": [
        8.05383680239898,
        -0.1526535143104923
      ],
      "bond_midpoint": [
        9.78588078424616,
        -0.15265351431049207
      ],
      "orientation_vector": [
        0.0,
        1.0
      ],
      "half_bracket_size": 0.49990016001536275,
      "bond": [
        16,
        17
      ],
      "fragment": "F2",
      "backbone": true,
      "suspended_anchor_atom": null,
      "suspended_reason": null,
      "source_label": "F2/fragments[0]",
      "marker_id": "5",
      "side": "right",
      "connection_group": "$a",
      "marker_type_index": 2
    },
    {
      "id": 2,
      "bracket_kind": "backbone",
      "pairing_id": "F2/fragments[1]",
      "group_id": "$a:2",
      "ru_midpoint": [
        10.651946283567039,
        -0.15265351431049223
      ],
      "bond_midpoint": [
        9.78588078424616,
        -0.15265351431049207
      ],
      "orientation_vector": [
        0.0,
        1.0
      ],
      "half_bracket_size": 0.49990016001536275,
      "bond": [
        16,
        17
      ],
      "fragment": "F2",
      "backbone": true,
      "suspended_anchor_atom": null,
      "suspended_reason": null,
      "source_label": "F2/fragments[1]",
      "marker_id": "0",
      "side": "left",
      "connection_group": "$a",
      "marker_type_index": 2
    },
    {
      "id": 3,
      "bracket_kind": "backbone",
      "pairing_id": "F2/fragments[1]",
      "group_id": "$a:2",
      "ru_midpoint": [
        10.651946283567039,
        -0.15265351431049223
      ],
      "bond_midpoint": [
        11.517968228287225,
        -0.15265359429447956
      ],
      "orientation_vector": [
        0.0,
        1.0
      ],
      "half_bracket_size": 0.49990016001536275,
      "bond": [
        4,
        18
      ],
      "fragment": "F2",
      "backbone": true,
      "suspended_anchor_atom": null,
      "suspended_reason": null,
      "source_label": "F2/fragments[1]",
      "marker_id": "5",
      "side": "right",
      "connection_group": "$a",
      "marker_type_index": 2
    },
    {
      "id": 4,
      "bracket_kind": "backbone",
      "pairing_id": "F2/connected",
      "group_id": "$overall",
      "ru_midpoint": [
        8.919880547521213,
        -0.1526535143104923
      ],
      "bond_midpoint": [
        6.321803671448446,
        -0.1526723126769914
      ],
      "orientation_vector": [
        0.0,
        1.0
      ],
      "half_bracket_size": 1.9997688137103973,
      "bond": [
        6,
        13
      ],
      "fragment": "F2",
      "backbone": true,
      "suspended_anchor_atom": null,
      "suspended_reason": null,
      "source_label": "F2/connected",
      "marker_id": "connected-overall-left",
      "side": "left",
      "connection_group": "$overall",
      "marker_type_index": null
    },
    {
      "id": 5,
      "bracket_kind": "backbone",
      "pairing_id": "F2/connected",
      "group_id": "$overall",
      "ru_midpoint": [
        8.919880547521213,
        -0.1526535143104923
      ],
      "bond_midpoint": [
        11.517968228287225,
        -0.15265359429447956
      ],
      "orientation_vector": [
        0.0,
        1.0
      ],
      "half_bracket_size": 1.9997688137103973,
      "bond": [
        4,
        18
      ],
      "fragment": "F2",
      "backbone": true,
      "suspended_anchor_atom": null,
      "suspended_reason": null,
      "source_label": "F2/connected",
      "marker_id": "connected-overall-right",
      "side": "right",
      "connection_group": "$overall",
      "marker_type_index": null
    },
    {
      "id": 6,
      "bracket_kind": "backbone",
      "pairing_id": "F1/fragments[0]",
      "group_id": "$a:2",
      "ru_midpoint": [
        5.455767979252931,
        -0.15263766159655517
      ],
      "bond_midpoint": [
        4.5898029396532705,
        -0.15263716159099633
      ],
      "orientation_vector": [
        0.0,
        1.0
      ],
      "half_bracket_size": 0.5000070589092322,
      "bond": [
        2,
        5
      ],
      "fragment": "F1",
      "backbone": true,
      "suspended_anchor_atom": null,
      "suspended_reason": null,
      "source_label": "F1/fragments[0]",
      "marker_id": "0",
      "side": "left",
      "connection_group": "$a",
      "marker_type_index": 2
    },
    {
      "id": 7,
      "bracket_kind": "backbone",
      "pairing_id": "F1/fragments[0]",
      "group_id": "$a:2",
      "ru_midpoint": [
        5.455767979252931,
        -0.15263766159655517
      ],
      "bond_midpoint": [
        6.321803671448446,
        -0.1526723126769914
      ],
      "orientation_vector": [
        0.0,
        1.0
      ],
      "half_bracket_size": 0.5000070589092322,
      "bond": [
        6,
        13
      ],
      "fragment": "F1",
      "backbone": true,
      "suspended_anchor_atom": null,
      "suspended_reason": null,
      "source_label": "F1/fragments[0]",
      "marker_id": "9",
      "side": "right",
      "connection_group": "$a",
      "marker_type_index": 2
    }
  ]
}
