
     RDKit          2D

  0  0  0  0  0  0  0  0  0  0999 V3000
M  V30 BEGIN CTAB
M  V30 COUNTS 25 24 7 0 0
M  V30 BEGIN ATOM
M  V30 1 H -0.433023 -0.252505 0.000000 0
M  V30 2 H 12.557311 0.247433 0.000000 0
M  V30 3 C 0.432981 0.247395 0.000000 0
M  V30 4 C 1.298985 -0.252505 0.000000 0
M  V30 5 C 2.164982 0.247395 0.000000 0
M  V30 6 C 3.030986 -0.252505 0.000000 0
M  V30 7 C 3.897069 0.247395 0.000000 0
M  V30 8 C 4.763073 -0.252505 0.000000 0
M  V30 9 C 4.763073 -1.252530 0.000000 0
M  V30 10 C 3.896921 -1.752374 0.000000 0
M  V30 11 C 5.629135 0.247433 0.000000 0
M  V30 12 C 6.495139 -0.252467 0.000000 0
M  V30 13 C 7.361135 0.247433 0.000000 0
M  V30 14 C 7.361135 1.247433 0.000000 0
M  V30 15 C 8.227140 -0.252467 0.000000 0
M  V30 16 C 9.093223 0.247433 0.000000 0
M  V30 17 C 9.959219 -0.252467 0.000000 0
M  V30 18 C 9.959219 -1.252399 0.000000 0
M  V30 19 C 9.093332 -1.752490 0.000000 0
M  V30 20 C 10.825278 -1.752341 0.000000 0
M  V30 21 C 10.825302 0.247433 0.000000 0
M  V30 22 C 11.691306 -0.252467 0.000000 0
M  V30 23 C 11.691306 0.747457 0.000000 0
M  V30 24 C 11.691306 -1.252392 0.000000 0
M  V30 25 C 10.825414 -1.752486 0.000000 0
M  V30 END ATOM
M  V30 BEGIN BOND
M  V30 1 1 3 4
M  V30 2 1 4 5
M  V30 3 1 5 6
M  V30 4 1 7 8
M  V30 5 1 8 9
M  V30 6 1 9 10
M  V30 7 1 6 7
M  V30 8 1 1 3
M  V30 9 1 11 12
M  V30 10 1 12 13
M  V30 11 1 13 14
M  V30 12 1 13 15
M  V30 13 1 16 17
M  V30 14 1 17 18
M  V30 15 1 18 19
M  V30 16 1 18 20
M  V30 17 1 15 16
M  V30 18 1 21 22
M  V30 19 1 22 23
M  V30 20 1 22 24
M  V30 21 1 24 25
M  V30 22 1 17 21
M  V30 23 1 8 11
M  V30 24 1 2 22
M  V30 END BOND
M  V30 BEGIN SGROUP
M  V30 1 SRU 0 ATOMS=(4 8 11 15 16) CBONDS=(2 17 23) -
M  V30 BRKXYZ=(9 5.1961 -0.5024 0 5.1961 0.4974 0 0 0 0) BRKXYZ=(9 8.6602 -0.5-
M  V30 024 0 8.6602 0.4974 0 0 0 0)
M  V30 2 SRU 0 ATOMS=(4 15 16 17 21) CBONDS=(2 17 22) -
M  V30 BRKXYZ=(9 8.6602 0.4974 0 8.6602 -0.5024 0 0 0 0) BRKXYZ=(9 10.3923 0.4-
M  V30 974 0 10.3923 -0.5024 0 0 0 0)
M  V30 3 SRU 0 ATOMS=(4 2 17 21 22) CBONDS=(2 22 24) -
M  V30 BRKXYZ=(9 10.3923 0.4974 0 10.3923 -0.5024 0 0 0 0) BRKXYZ=(9 12.1243 0-
M  V30 .4974 0 12.1243 -0.5024 0 0 0 0)
M  V30 4 SRU 0 ATOMS=(4 2 8 11 22) CBONDS=(2 23 24) -
M  V30 BRKXYZ=(9 5.1961 -3.0025 0 5.1961 2.9974 0 0 0 0) BRKXYZ=(9 12.1243 -3.-
M  V30 0024 0 12.1243 2.9974 0 0 0 0)
M  V30 5 SRU 0 ATOMS=(4 1 3 6 7) CBONDS=(2 7 8) -
M  V30 BRKXYZ=(9 -0.0000 0.4973 0 -0.0000 -0.5025 0 0 0 0) BRKXYZ=(9 3.4640 0.-
M  V30 4973 0 3.4640 -0.5025 0 0 0 0)
M  V30 6 SRU 0 ATOMS=(4 6 7 8 11) CBONDS=(2 7 23) -
M  V30 BRKXYZ=(9 3.4640 0.4973 0 3.4640 -0.5025 0 0 0 0) BRKXYZ=(9 5.1961 0.49-
M  V30 74 0 5.1961 -0.5024 0 0 0 0)
M  V30 7 SRU 0 ATOMS=(4 1 3 8 11) CBONDS=(2 8 23) -
M  V30 BRKXYZ=(9 -0.0000 1.9972 0 -0.0000 -2.0023 0 0 0 0) BRKXYZ=(9 5.1961 1.-
M  V30 9972 0 5.1961 -2.0023 0 0 0 0)
M  V30 END SGROUP
M  V30 END CTAB
M  END
>  <BIGSMILES_BRACKET_RECORDS_JSON>
{
  "records": [
    {
      "id": 0,
      "bracket_kind": "backbone",
      "pairing_id": "F2/fragments[0]",
      "group_id": "$a:2",
      "ru_midpoint": [
        6.928137091306821,
        -0.0025173427689452535
      ],
      "bond_midpoint": [
        5.196103960356288,
        -0.002536141135444092
      ],
      "orientation_vector": [
        0.0,
        -1.0
      ],
      "half_bracket_size": 0.4999001600153621,
      "bond": [
        7,
        10
      ],
      "fragment": "F2",
      "backbone": true,
      "suspended_anchor_atom": null,
      "suspended_reason": null,
      "source_label": "F2/fragments[0]",
      "marker_id": "0",
      "side": "left",
      "connection_group": "$a",
      "marker_type_index": 2
    },
    {
      "id": 1,
      "bracket_kind": "backbone",
      "pairing_id": "F2/fragments[0]",
      "group_id": "$a:2",
      "ru_midpoint": [
        6.928137091306821,
        -0.0025173427689452535
      ],
      "bond_midpoint": [
        8.660181073154002,
        -0.002517342768945302
      ],
      "orientation_vector": [
        0.0,
        -1.0
      ],
      "half_bracket_size": 0.4999001600153621,
      "bond": [
        14,
        15
      ],
      "fragment": "F2",
      "backbone": true,
      "suspended_anchor_atom": null,
      "suspended_reason": null,
      "source_label": "F2/fragments[0]",
      "marker_id": "6",
      "side": "right",
      "connection_group": "$a",
      "marker_type_index": 2
    },
    {
      "id": 2,
      "bracket_kind": "backbone",
      "pairing_id": "F2/fragments[1]",
      "group_id": "$a:2",
      "ru_midpoint": [
        9.52624045815817,
        -0.0025173427689452257
      ],
      "bond_midpoint": [
        8.660181073154002,
        -0.002517342768945302
      ],
      "orientation_vector": [
        0.0,
        1.0
      ],
      "half_bracket_size": 0.4999001600153621,
      "bond": [
        14,
        15
      ],
      "fragment": "F2",
      "backbone": true,
      "suspended_anchor_atom": null,
      "suspended_reason": null,
      "source_label": "F2/fragments[1]",
      "marker_id": "0",
      "side": "left",
      "connection_group": "$a",
      "marker_type_index": 2
    },
    {
      "id": 3,
      "bracket_kind": "backbone",
      "pairing_id": "F2/fragments[1]",
      "group_id": "$a:2",
      "ru_midpoint": [
        9.52624045815817,
        -0.0025173427689452257
      ],
      "bond_midpoint": [
        10.392260318606315,
        -0.002517342768945219
      ],
      "orientation_vector": [
        0.0,
        1.0
      ],
      "half_bracket_size": 0.4999001600153621,
      "bond": [
        16,
        20
      ],
      "fragment": "F2",
      "backbone": true,
      "suspended_anchor_atom": null,
      "suspended_reason": null,
      "source_label": "F2/fragments[1]",
      "marker_id": "6",
      "side": "right",
      "connection_group": "$a",
      "marker_type_index": 2
    },
    {
      "id": 4,
      "bracket_kind": "backbone",
      "pairing_id": "F2/fragments[2]",
      "group_id": "$a:2",
      "ru_midpoint": [
        11.25829100620312,
        -0.0025093447502876134
      ],
      "bond_midpoint": [
        10.392260318606315,
        -0.002517342768945219
      ],
      "orientation_vector": [
        0.0,
        1.0
      ],
      "half_bracket_size": 0.4999001600153621,
      "bond": [
        16,
        20
      ],
      "fragment": "F2",
      "backbone": true,
      "suspended_anchor_atom": null,
      "suspended_reason": null,
      "source_label": "F2/fragments[2]",
      "marker_id": "0",
      "side": "left",
      "connection_group": "$a",
      "marker_type_index": 2
    },
    {
      "id": 5,
      "bracket_kind": "backbone",
      "pairing_id": "F2/fragments[2]",
      "group_id": "$a:2",
      "ru_midpoint": [
        11.25829100620312,
        -0.0025093447502876134
      ],
      "bond_midpoint": [
        12.124308376664633,
        -0.0025173427689451355
      ],
      "orientation_vector": [
        0.0,
        1.0
      ],
      "half_bracket_size": 0.4999001600153621,
      "bond": [
        1,
        21
      ],
      "fragment": "F2",
      "backbone": true,
      "suspended_anchor_atom": null,
      "suspended_reason": null,
      "source_label": "F2/fragments[2]",
      "marker_id": "6",
      "side": "right",
      "connection_group": "$a",
      "marker_type_index": 2
    },
    {
      "id": 6,
      "bracket_kind": "backbone",
      "pairing_id": "F2/connected",
      "group_id": "$overall",
      "ru_midpoint": [
        8.660172283577289,
        -0.0025093447502875857
      ],
      "bond_midpoint": [
        5.196103960356288,
        -0.002536141135444092
      ],
      "orientation_vector": [
        0.0,
        -1.0
      ],
      "half_bracket_size": 2.9999227350143496,
      "bond": [
        7,
        10
      ],
      "fragment": "F2",
      "backbone": true,
      "suspended_anchor_atom": null,
      "suspended_reason": null,
      "source_label": "F2/connected",
      "marker_id": "connected-overall-left",
      "side": "left",
      "connection_group": "$overall",
      "marker_type_index": null
    },
    {
      "id": 7,
      "bracket_kind": "backbone",
      "pairing_id": "F2/connected",
      "group_id": "$overall",
      "ru_midpoint": [
        8.660172283577289,
        -0.0025093447502875857
      ],
      "bond_midpoint": [
        12.124308376664633,
        -0.0025173427689451355
      ],
      "orientation_vector": [
        0.0,
        -1.0
      ],
      "half_bracket_size": 2.9999227350143496,
      "bond": [
        1,
        21
      ],
      "fragment": "F2",
      "backbone": true,
      "suspended_anchor_atom": null,
      "suspended_reason": null,
      "source_label": "F2/connected",
      "marker_id": "connected-overall-right",
      "side": "right",
      "connection_group": "$overall",
      "marker_type_index": null
    },
    {
      "id": 8,
      "bracket_kind": "backbone",
      "pairing_id": "F1/fragments[0]",
      "group_id": "$a:2",
      "ru_midpoint": [
        1.7320119204507876,
        -0.002536141135444127
      ],
      "bond_midpoint": [
        -2.1210499746349143e-05,
        -0.002554939501943354
      ],
      "orientation_vector": [
        0.0,
        1.0
      ],
      "half_bracket_size": 0.49990016001536275,
      "bond": [
        0,
        2
      ],
      "fragment": "F1",
      "backbone": true,
      "suspended_anchor_atom": null,
      "suspended_reason": null,
      "source_label": "F1/fragments[0]",
      "marker_id": "0",
      "side": "left",
      "connection_group": "$a",
      "marker_type_index": 2
    },
    {
      "id": 9,
      "bracket_kind": "backbone",
      "pairing_id": "F1/fragments[0]",
      "group_id": "$a:2",
      "ru_midpoint": [
        1.7320119204507876,
        -0.002536141135444127
      ],
      "bond_midpoint": [
        3.464027413378343,
        -0.0025549395019429655
      ],
      "orientation_vector": [
        0.0,
        1.0
      ],
      "half_bracket_size": 0.49990016001536275,
      "bond": [
        5,
        6
      ],
      "fragment": "F1",
      "backbone": true,
      "suspended_anchor_atom": null,
      "suspended_reason": null,
      "source_label": "F1/fragments[0]",
      "marker_id": "5",
      "side": "right",
      "connection_group": "$a",
      "marker_type_index": 2
    },
    {
      "id": 10,
      "bracket_kind": "backbone",
      "pairing_id": "F1/fragments[1]",
      "group_id": "$a:2",
      "ru_midpoint": [
        4.330092912699222,
        -0.0025549395019432222
      ],
      "bond_midpoint": [
        3.464027413378343,
        -0.0025549395019429655
      ],
      "orientation_vector": [
        0.0,
        1.0
      ],
      "half_bracket_size": 0.49990016001536275,
      "bond": [
        5,
        6
      ],
      "fragment": "F1",
      "backbone": true,
      "suspended_anchor_atom": null,
      "suspended_reason": null,
      "source_label": "F1/fragments[1]",
      "marker_id": "0",
      "side": "left",
      "connection_group": "$a",
      "marker_type_index": 2
    },
    {
      "id": 11,
      "bracket_kind": "backbone",
      "pairing_id": "F1/fragments[1]",
      "group_id": "$a:2",
      "ru_midpoint": [
        4.330092912699222,
        -0.0025549395019432222
      ],
      "bond_midpoint": [
        5.196103960356288,
        -0.002536141135444092
      ],
      "orientation_vector": [
        0.0,
        1.0
      ],
      "half_bracket_size": 0.49990016001536275,
      "bond": [
        7,
        10
      ],
      "fragment": "F1",
      "backbone": true,
      "suspended_anchor_atom": null,
      "suspended_reason": null,
      "source_label": "F1/fragments[1]",
      "marker_id": "5",
      "side": "right",
      "connection_group": "$a",
      "marker_type_index": 2
    },
    {
      "id": 12,
      "bracket_kind": "backbone",
      "pairing_id": "F1/connected",
      "group_id": "$overall",
      "ru_midpoint": [
        2.598055665573022,
        -0.002536141135444127
      ],
      "bond_midpoint": [
        -2.1210499746349143e-05,
        -0.002554939501943354
      ],
      "orientation_vector": [
        0.0,
        1.0
      ],
      "half_bracket_size": 1.9997688137103973,
      "bond": [
        0,
        2
      ],
      "fragment": "F1",
      "backbone": true,
      "suspended_anchor_atom": null,
      "suspended_reason": null,
      "source_label": "F1/connected",
      "marker_id": "connected-overall-left",
      "side": "left",
      "connection_group": "$overall",
      "marker_type_index": null
    },
    {
      "id": 13,
      "bracket_kind": "backbone",
      "pairing_id": "F1/connected",
      "group_id": "$overall",
      "ru_midpoint": [
        2.598055665573022,
        -0.002536141135444127
      ],
      "bond_midpoint": [
        5.196103960356288,
        -0.002536141135444092
      ],
      "orientation_vector": [
        0.0,
        1.0
      ],
      "half_bracket_size": 1.9997688137103973,
      "bond": [
        7,
        10
      ],
      "fragment": "F1",
      "backbone": true,
      "suspended_anchor_atom": null,
      "suspended_reason": null,
      "source_label": "F1/connected",
      "marker_id": "connected-overall-right",
      "side": "right",
      "connection_group": "$overall",
      "marker_type_index": null
    }
  ]
}
