
     RDKit          2D

  0  0  0  0  0  0  0  0  0  0999 V3000
M  V30 BEGIN CTAB
M  V30 COUNTS 18 17 6 0 0
M  V30 BEGIN ATOM
M  V30 1 H 0.433035 -0.252538 0.000000 0
M  V30 2 H 11.691289 0.247400 0.000000 0
M  V30 3 C 1.299039 0.247362 0.000000 0
M  V30 4 C 2.165043 -0.252538 0.000000 0
M  V30 5 C 3.031039 0.247362 0.000000 0
M  V30 6 C 3.897044 -0.252538 0.000000 0
M  V30 7 C 4.763127 0.247362 0.000000 0
M  V30 8 C 5.629131 -0.252538 0.000000 0
M  V30 9 C 5.629131 -1.252563 0.000000 0
M  V30 10 C 4.762979 -1.752407 0.000000 0
M  V30 11 C 6.495193 0.247400 0.000000 0
M  V30 12 C 7.361197 -0.252500 0.000000 0
M  V30 13 C 8.227193 0.247400 0.000000 0
M  V30 14 C 9.093197 -0.252500 0.000000 0
M  V30 15 C 9.959281 0.247400 0.000000 0
M  V30 16 C 10.825285 -0.252500 0.000000 0
M  V30 17 C 10.825285 -1.252525 0.000000 0
M  V30 18 C 9.959132 -1.752369 0.000000 0
M  V30 END ATOM
M  V30 BEGIN BOND
M  V30 1 1 3 4
M  V30 2 1 4 5
M  V30 3 1 5 6
M  V30 4 1 7 8
M  V30 5 1 8 9
M  V30 6 1 9 10
M  V30 7 1 6 7
M  V30 8 1 1 3
M  V30 9 1 11 12
M  V30 10 1 12 13
M  V30 11 1 13 14
M  V30 12 1 15 16
M  V30 13 1 16 17
M  V30 14 1 17 18
M  V30 15 1 14 15
M  V30 16 1 8 11
M  V30 17 1 2 16
M  V30 END BOND
M  V30 BEGIN SGROUP
M  V30 1 SRU 0 ATOMS=(4 8 11 14 15) CBONDS=(2 15 16) -
M  V30 BRKXYZ=(9 6.0622 0.4973 0 6.0622 -0.5025 0 0 0 0) BRKXYZ=(9 9.5262 0.49-
M  V30 73 0 9.5262 -0.5025 0 0 0 0)
M  V30 2 SRU 0 ATOMS=(4 2 14 15 16) CBONDS=(2 15 17) -
M  V30 BRKXYZ=(9 9.5262 0.4973 0 9.5262 -0.5025 0 0 0 0) BRKXYZ=(9 11.2583 0.4-
M  V30 973 0 11.2583 -0.5025 0 0 0 0)
M  V30 3 SRU 0 ATOMS=(4 2 8 11 16) CBONDS=(2 16 17) -
M  V30 BRKXYZ=(9 6.0622 1.9972 0 6.0622 -2.0023 0 0 0 0) BRKXYZ=(9 11.2583 1.9-
M  V30 972 0 11.2583 -2.0023 0 0 0 0)
M  V30 4 SRU 0 ATOMS=(4 1 3 6 7) CBONDS=(2 7 8) -
M  V30 BRKXYZ=(9 0.8660 0.4973 0 0.8660 -0.5025 0 0 0 0) BRKXYZ=(9 4.3301 0.49-
M  V30 73 0 4.3301 -0.5025 0 0 0 0)
M  V30 5 SRU 0 ATOMS=(4 6 7 8 11) CBONDS=(2 7 16) -
M  V30 BRKXYZ=(9 4.3301 0.4973 0 4.3301 -0.5025 0 0 0 0) BRKXYZ=(9 6.0622 0.49-
M  V30 73 0 6.0622 -0.5025 0 0 0 0)
M  V30 6 SRU 0 ATOMS=(4 1 3 8 11) CBONDS=(2 8 16) -
M  V30 BRKXYZ=(9 0.8660 1.9972 0 0.8660 -2.0024 0 0 0 0) BRKXYZ=(9 6.0622 1.99-
M  V30 72 0 6.0622 -2.0023 0 0 0 0)
M  V30 END SGROUP
M  V30 END CTAB
M  END
>  <BIGSMILES_BRACKET_RECORDS_JSON>
{
  "records": [
    {
      "id": 0,
      "bracket_kind": "backbone",
      "pairing_id": "F2/fragments[0]",
      "group_id": "$a:2",
      "ru_midpoint": [
        7.7941950028783324,
        -0.002550239910318275
      ],
      "bond_midpoint": [
        6.062161871927799,
        -0.002569038276817398
      ],
      "orientation_vector": [
        0.0,
        1.0
      ],
      "half_bracket_size": 0.49990016001536275,
      "bond": [
        7,
        10
      ],
      "fragment": "F2",
      "backbone": true,
      "suspended_anchor_atom": null,
      "suspended_reason": null,
      "source_label": "F2/fragments[0]",
      "marker_id": "0",
      "side": "left",
      "connection_group": "$a",
      "marker_type_index": 2
    },
    {
      "id": 1,
      "bracket_kind": "backbone",
      "pairing_id": "F2/fragments[0]",
      "group_id": "$a:2",
      "ru_midpoint": [
        7.7941950028783324,
        -0.002550239910318275
      ],
      "bond_midpoint": [
        9.526238984725513,
        -0.002550239910318053
      ],
      "orientation_vector": [
        0.0,
        1.0
      ],
      "half_bracket_size": 0.49990016001536275,
      "bond": [
        13,
        14
      ],
      "fragment": "F2",
      "backbone": true,
      "suspended_anchor_atom": null,
      "suspended_reason": null,
      "source_label": "F2/fragments[0]",
      "marker_id": "5",
      "side": "right",
      "connection_group": "$a",
      "marker_type_index": 2
    },
    {
      "id": 2,
      "bracket_kind": "backbone",
      "pairing_id": "F2/fragments[1]",
      "group_id": "$a:2",
      "ru_midpoint": [
        10.392265098063646,
        -0.002550159926330786
      ],
      "bond_midpoint": [
        9.526238984725513,
        -0.002550239910318053
      ],
      "orientation_vector": [
        0.0,
        1.0
      ],
      "half_bracket_size": 0.49990016001536275,
      "bond": [
        13,
        14
      ],
      "fragment": "F2",
      "backbone": true,
      "suspended_anchor_atom": null,
      "suspended_reason": null,
      "source_label": "F2/fragments[1]",
      "marker_id": "0",
      "side": "left",
      "connection_group": "$a",
      "marker_type_index": 2
    },
    {
      "id": 3,
      "bracket_kind": "backbone",
      "pairing_id": "F2/fragments[1]",
      "group_id": "$a:2",
      "ru_midpoint": [
        10.392265098063646,
        -0.002550159926330786
      ],
      "bond_midpoint": [
        11.25828704278383,
        -0.0025502399103181084
      ],
      "orientation_vector": [
        0.0,
        1.0
      ],
      "half_bracket_size": 0.49990016001536275,
      "bond": [
        1,
        15
      ],
      "fragment": "F2",
      "backbone": true,
      "suspended_anchor_atom": null,
      "suspended_reason": null,
      "source_label": "F2/fragments[1]",
      "marker_id": "5",
      "side": "right",
      "connection_group": "$a",
      "marker_type_index": 2
    },
    {
      "id": 4,
      "bracket_kind": "backbone",
      "pairing_id": "F2/connected",
      "group_id": "$overall",
      "ru_midpoint": [
        8.66019936201782,
        -0.0025501599263308417
      ],
      "bond_midpoint": [
        6.062161871927799,
        -0.002569038276817398
      ],
      "orientation_vector": [
        0.0,
        1.0
      ],
      "half_bracket_size": 1.9997688137103973,
      "bond": [
        7,
        10
      ],
      "fragment": "F2",
      "backbone": true,
      "suspended_anchor_atom": null,
      "suspended_reason": null,
      "source_label": "F2/connected",
      "marker_id": "connected-overall-left",
      "side": "left",
      "connection_group": "$overall",
      "marker_type_index": null
    },
    {
      "id": 5,
      "bracket_kind": "backbone",
      "pairing_id": "F2/connected",
      "group_id": "$overall",
      "ru_midpoint": [
        8.66019936201782,
        -0.0025501599263308417
      ],
      "bond_midpoint": [
        11.25828704278383,
        -0.0025502399103181084
      ],
      "orientation_vector": [
        0.0,
        1.0
      ],
      "half_bracket_size": 1.9997688137103973,
      "bond": [
        1,
        15
      ],
      "fragment": "F2",
      "backbone": true,
      "suspended_anchor_atom": null,
      "suspended_reason": null,
      "source_label": "F2/connected",
      "marker_id": "connected-overall-right",
      "side": "right",
      "connection_group": "$overall",
      "marker_type_index": null
    },
    {
      "id": 6,
      "bracket_kind": "backbone",
      "pairing_id": "F1/fragments[0]",
      "group_id": "$a:2",
      "ru_midpoint": [
        2.598069832022298,
        -0.0025690382768173703
      ],
      "bond_midpoint": [
        0.866036701071764,
        -0.002587836643316632
      ],
      "orientation_vector": [
        0.0,
        1.0
      ],
      "half_bracket_size": 0.49990016001536275,
      "bond": [
        0,
        2
      ],
      "fragment": "F1",
      "backbone": true,
      "suspended_anchor_atom": null,
      "suspended_reason": null,
      "source_label": "F1/fragments[0]",
      "marker_id": "0",
      "side": "left",
      "connection_group": "$a",
      "marker_type_index": 2
    },
    {
      "id": 7,
      "bracket_kind": "backbone",
      "pairing_id": "F1/fragments[0]",
      "group_id": "$a:2",
      "ru_midpoint": [
        2.598069832022298,
        -0.0025690382768173703
      ],
      "bond_midpoint": [
        4.330085324949853,
        -0.002587836643316299
      ],
      "orientation_vector": [
        0.0,
        1.0
      ],
      "half_bracket_size": 0.49990016001536275,
      "bond": [
        5,
        6
      ],
      "fragment": "F1",
      "backbone": true,
      "suspended_anchor_atom": null,
      "suspended_reason": null,
      "source_label": "F1/fragments[0]",
      "marker_id": "5",
      "side": "right",
      "connection_group": "$a",
      "marker_type_index": 2
    },
    {
      "id": 8,
      "bracket_kind": "backbone",
      "pairing_id": "F1/fragments[1]",
      "group_id": "$a:2",
      "ru_midpoint": [
        5.196150824270732,
        -0.0025878366433164657
      ],
      "bond_midpoint": [
        4.330085324949853,
        -0.002587836643316299
      ],
      "orientation_vector": [
        0.0,
        1.0
      ],
      "half_bracket_size": 0.49990016001536275,
      "bond": [
        5,
        6
      ],
      "fragment": "F1",
      "backbone": true,
      "suspended_anchor_atom": null,
      "suspended_reason": null,
      "source_label": "F1/fragments[1]",
      "marker_id": "0",
      "side": "left",
      "connection_group": "$a",
      "marker_type_index": 2
    },
    {
      "id": 9,
      "bracket_kind": "backbone",
      "pairing_id": "F1/fragments[1]",
      "group_id": "$a:2",
      "ru_midpoint": [
        5.196150824270732,
        -0.0025878366433164657
      ],
      "bond_midpoint": [
        6.062161871927799,
        -0.002569038276817398
      ],
      "orientation_vector": [
        0.0,
        1.0
      ],
      "half_bracket_size": 0.49990016001536275,
      "bond": [
        7,
        10
      ],
      "fragment": "F1",
      "backbone": true,
      "suspended_anchor_atom": null,
      "suspended_reason": null,
      "source_label": "F1/fragments[1]",
      "marker_id": "5",
      "side": "right",
      "connection_group": "$a",
      "marker_type_index": 2
    },
    {
      "id": 10,
      "bracket_kind": "backbone",
      "pairing_id": "F1/connected",
      "group_id": "$overall",
      "ru_midpoint": [
        3.4641135771445324,
        -0.0025690382768173703
      ],
      "bond_midpoint": [
        0.866036701071764,
        -0.002587836643316632
      ],
      "orientation_vector": [
        0.0,
        1.0
      ],
      "half_bracket_size": 1.9997688137103973,
      "bond": [
        0,
        2
      ],
      "fragment": "F1",
      "backbone": true,
      "suspended_anchor_atom": null,
      "suspended_reason": null,
      "source_label": "F1/connected",
      "marker_id": "connected-overall-left",
      "side": "left",
      "connection_group": "$overall",
      "marker_type_index": null
    },
    {
      "id": 11,
      "bracket_kind": "backbone",
      "pairing_id": "F1/connected",
      "group_id": "$overall",
      "ru_midpoint": [
        3.4641135771445324,
        -0.0025690382768173703
      ],
      "bond_midpoint": [
        6.062161871927799,
        -0.002569038276817398
      ],
      "orientation_vector": [
        0.0,
        1.0
      ],
      "half_bracket_size": 1.9997688137103973,
      "bond": [
        7,
        10
      ],
      "fragment": "F1",
      "backbone": true,
      "suspended_anchor_atom": null,
      "suspended_reason": null,
      "source_label": "F1/connected",
      "marker_id": "connected-overall-right",
      "side": "right",
      "connection_group": "$overall",
      "marker_type_index": null
    }
  ]
}
