
     RDKit          2D

  0  0  0  0  0  0  0  0  0  0999 V3000
M  V30 BEGIN CTAB
M  V30 COUNTS 10 9 2 0 0
M  V30 BEGIN ATOM
M  V30 1 H 3.031360 -0.252505 0.000000 0
M  V30 2 H 9.093061 0.247596 0.000000 0
M  V30 3 C 3.897356 0.247595 0.000000 0
M  V30 4 C 4.763352 -0.252505 0.000000 0
M  V30 5 O 5.629241 0.247595 0.000000 0
M  V30 6 C 6.495257 -0.252420 0.000000 0
M  V30 7 C 6.495257 -1.252352 0.000000 0
M  V30 8 C 7.361143 -1.752443 0.000000 0
M  V30 9 C 7.361186 0.247596 0.000000 0
M  V30 10 O 8.227124 -0.252420 0.000000 0
M  V30 END ATOM
M  V30 BEGIN BOND
M  V30 1 1 3 4
M  V30 2 1 4 5
M  V30 3 1 1 3
M  V30 4 1 6 7
M  V30 5 1 7 8
M  V30 6 1 6 9
M  V30 7 1 9 10
M  V30 8 1 5 6
M  V30 9 1 2 10
M  V30 END BOND
M  V30 BEGIN SGROUP
M  V30 1 SRU 0 ATOMS=(4 2 5 6 10) CBONDS=(2 8 9) -
M  V30 BRKXYZ=(9 6.0622 0.4976 0 6.0622 -0.5024 0 0 0 0) BRKXYZ=(9 8.6601 0.49-
M  V30 76 0 8.6601 -0.5024 0 0 0 0)
M  V30 2 SRU 0 ATOMS=(4 1 3 5 6) CBONDS=(2 3 8) -
M  V30 BRKXYZ=(9 3.4644 -0.5026 0 3.4644 0.4976 0 0 0 0) BRKXYZ=(9 6.0622 -0.5-
M  V30 025 0 6.0622 0.4977 0 0 0 0)
M  V30 END SGROUP
M  V30 END CTAB
M  END
>  <BIGSMILES_BRACKET_RECORDS_JSON>
{
  "records": [
    {
      "id": 0,
      "bracket_kind": "backbone",
      "pairing_id": "F2/fragments[0]",
      "group_id": "<1:3",
      "ru_midpoint": [
        7.361143678234984,
        0.047570328861459454
      ],
      "bond_midpoint": [
        6.06224888648392,
        -0.002412548202843562
      ],
      "orientation_vector": [
        0.0,
        1.0
      ],
      "half_bracket_size": 0.5000159978427487,
      "bond": [
        4,
        5
      ],
      "fragment": "F2",
      "backbone": true,
      "suspended_anchor_atom": null,
      "suspended_reason": null,
      "source_label": "F2/fragments[0]",
      "marker_id": "0",
      "side": "left",
      "connection_group": "<1",
      "marker_type_index": 3
    },
    {
      "id": 1,
      "bracket_kind": "backbone",
      "pairing_id": "F2/fragments[0]",
      "group_id": ">1:4",
      "ru_midpoint": [
        7.361143678234984,
        0.047570328861459454
      ],
      "bond_midpoint": [
        8.660092567037925,
        -0.0024124682003223707
      ],
      "orientation_vector": [
        0.0,
        1.0
      ],
      "half_bracket_size": 0.5000159978427487,
      "bond": [
        1,
        9
      ],
      "fragment": "F2",
      "backbone": true,
      "suspended_anchor_atom": null,
      "suspended_reason": null,
      "source_label": "F2/fragments[0]",
      "marker_id": "6",
      "side": "right",
      "connection_group": ">1",
      "marker_type_index": 4
    },
    {
      "id": 2,
      "bracket_kind": "backbone",
      "pairing_id": "F1/fragments[0]",
      "group_id": "<1:3",
      "ru_midpoint": [
        4.763274634846811,
        -0.05247272647250853
      ],
      "bond_midpoint": [
        3.4643578105618635,
        -0.002454709259003207
      ],
      "orientation_vector": [
        0.0,
        -1.0
      ],
      "half_bracket_size": 0.5001001599500253,
      "bond": [
        0,
        2
      ],
      "fragment": "F1",
      "backbone": true,
      "suspended_anchor_atom": null,
      "suspended_reason": null,
      "source_label": "F1/fragments[0]",
      "marker_id": "0",
      "side": "left",
      "connection_group": "<1",
      "marker_type_index": 3
    },
    {
      "id": 3,
      "bracket_kind": "backbone",
      "pairing_id": "F1/fragments[0]",
      "group_id": ">1:4",
      "ru_midpoint": [
        4.763274634846811,
        -0.05247272647250853
      ],
      "bond_midpoint": [
        6.06224888648392,
        -0.002412548202843562
      ],
      "orientation_vector": [
        0.0,
        -1.0
      ],
      "half_bracket_size": 0.5001001599500253,
      "bond": [
        4,
        5
      ],
      "fragment": "F1",
      "backbone": true,
      "suspended_anchor_atom": null,
      "suspended_reason": null,
      "source_label": "F1/fragments[0]",
      "marker_id": "4",
      "side": "right",
      "connection_group": ">1",
      "marker_type_index": 4
    }
  ]
}
