
     RDKit          2D

  0  0  0  0  0  0  0  0  0  0999 V3000
M  V30 BEGIN CTAB
M  V30 COUNTS 28 27 6 0 0
M  V30 BEGIN ATOM
M  V30 1 H -8.400638 0.077391 0.000000 0
M  V30 2 C 5.455488 0.077253 0.000000 0
M  V30 3 C 5.455488 1.077253 0.000000 0
M  V30 4 C 6.321492 -0.422847 0.000000 0
M  V30 5 C 7.187488 0.077253 0.000000 0
M  V30 6 C -5.802807 -0.422747 0.000000 0
M  V30 7 C -6.668803 0.077353 0.000000 0
M  V30 8 O -7.534692 -0.422747 0.000000 0
M  V30 9 C -4.936791 0.077269 0.000000 0
M  V30 10 C -4.070862 -0.422747 0.000000 0
M  V30 11 C -3.204845 0.077269 0.000000 0
M  V30 12 C -3.204845 1.077293 0.000000 0
M  V30 13 C -2.338792 -0.422747 0.000000 0
M  V30 14 C -1.472776 0.077269 0.000000 0
M  V30 15 C -0.606772 -0.422631 0.000000 0
M  V30 16 C 0.259225 0.077269 0.000000 0
M  V30 17 C 0.259225 1.077269 0.000000 0
M  V30 18 C 1.125229 -0.422631 0.000000 0
M  V30 19 C 1.991312 0.077269 0.000000 0
M  V30 20 C 2.857308 -0.422631 0.000000 0
M  V30 21 C 2.857308 -1.422563 0.000000 0
M  V30 22 C 1.991422 -1.922654 0.000000 0
M  V30 23 C 3.723368 -1.922505 0.000000 0
M  V30 24 C 3.723391 0.077269 0.000000 0
M  V30 25 C 4.589396 -0.422631 0.000000 0
M  V30 26 C 4.589396 0.577293 0.000000 0
M  V30 27 C 4.589396 -1.422556 0.000000 0
M  V30 28 C 3.723503 -1.922650 0.000000 0
M  V30 END ATOM
M  V30 BEGIN BOND
M  V30 1 1 2 3
M  V30 2 1 2 4
M  V30 3 1 4 5
M  V30 4 1 6 7
M  V30 5 1 7 8
M  V30 6 1 1 8
M  V30 7 1 9 10
M  V30 8 2 10 11
M  V30 9 1 11 12
M  V30 10 1 11 13
M  V30 11 1 14 15
M  V30 12 2 15 16
M  V30 13 1 16 17
M  V30 14 1 16 18
M  V30 15 1 13 14
M  V30 16 1 19 20
M  V30 17 1 20 21
M  V30 18 1 21 22
M  V30 19 2 21 23
M  V30 20 1 18 19
M  V30 21 1 24 25
M  V30 22 1 25 26
M  V30 23 1 25 27
M  V30 24 2 27 28
M  V30 25 1 20 24
M  V30 26 1 6 9
M  V30 27 1 2 25
M  V30 END BOND
M  V30 BEGIN SGROUP
M  V30 1 SRU 0 ATOMS=(4 6 9 13 14) CBONDS=(2 15 26) -
M  V30 BRKXYZ=(9 -5.3698 -0.6728 0 -5.3698 0.3273 0 0 0 0) BRKXYZ=(9 -1.9058 --
M  V30 0.6728 0 -1.9058 0.3273 0 0 0 0)
M  V30 2 SRU 0 ATOMS=(4 13 14 18 19) CBONDS=(2 15 20) -
M  V30 BRKXYZ=(9 -1.9058 -0.6728 0 -1.9058 0.3273 0 0 0 0) BRKXYZ=(9 1.5583 -0-
M  V30 .6727 0 1.5583 0.3273 0 0 0 0)
M  V30 3 SRU 0 ATOMS=(4 18 19 20 24) CBONDS=(2 20 25) -
M  V30 BRKXYZ=(9 1.5583 0.3273 0 1.5583 -0.6727 0 0 0 0) BRKXYZ=(9 3.2903 0.32-
M  V30 73 0 3.2903 -0.6727 0 0 0 0)
M  V30 4 SRU 0 ATOMS=(4 2 20 24 25) CBONDS=(2 25 27) -
M  V30 BRKXYZ=(9 3.2903 0.3273 0 3.2903 -0.6727 0 0 0 0) BRKXYZ=(9 5.0224 0.32-
M  V30 73 0 5.0224 -0.6727 0 0 0 0)
M  V30 5 SRU 0 ATOMS=(4 2 6 9 25) CBONDS=(2 26 27) -
M  V30 BRKXYZ=(9 -5.3698 -3.1727 0 -5.3698 2.8272 0 0 0 0) BRKXYZ=(9 5.0224 -3-
M  V30 .1726 0 5.0224 2.8273 0 0 0 0)
M  V30 6 SRU 0 ATOMS=(4 1 6 8 9) CBONDS=(2 6 26) -
M  V30 BRKXYZ=(9 -5.3698 0.3274 0 -5.3698 -0.6728 0 0 0 0) BRKXYZ=(9 -7.9677 0-
M  V30 .3274 0 -7.9677 -0.6728 0 0 0 0)
M  V30 END SGROUP
M  V30 END CTAB
M  END
>  <BIGSMILES_BRACKET_RECORDS_JSON>
{
  "records": [
    {
      "id": 0,
      "bracket_kind": "backbone",
      "pairing_id": "F2/fragments[0]",
      "group_id": "$a:2",
      "ru_midpoint": [
        -3.6378075548398496,
        -0.17273916204316264
      ],
      "bond_midpoint": [
        -5.3697992286170395,
        -0.1727390820406417
      ],
      "orientation_vector": [
        0.0,
        -1.0
      ],
      "half_bracket_size": 0.5000159978427487,
      "bond": [
        5,
        8
      ],
      "fragment": "F2",
      "backbone": true,
      "suspended_anchor_atom": null,
      "suspended_reason": null,
      "source_label": "F2/fragments[0]",
      "marker_id": "0",
      "side": "left",
      "connection_group": "$a",
      "marker_type_index": 2
    },
    {
      "id": 1,
      "bracket_kind": "backbone",
      "pairing_id": "F2/fragments[0]",
      "group_id": "$a:2",
      "ru_midpoint": [
        -3.6378075548398496,
        -0.17273916204316264
      ],
      "bond_midpoint": [
        -1.905784032740537,
        -0.17273916204316264
      ],
      "orientation_vector": [
        0.0,
        -1.0
      ],
      "half_bracket_size": 0.5000159978427487,
      "bond": [
        12,
        13
      ],
      "fragment": "F2",
      "backbone": true,
      "suspended_anchor_atom": null,
      "suspended_reason": null,
      "source_label": "F2/fragments[0]",
      "marker_id": "6",
      "side": "right",
      "connection_group": "$a",
      "marker_type_index": 2
    },
    {
      "id": 2,
      "bracket_kind": "backbone",
      "pairing_id": "F2/fragments[1]",
      "group_id": "$a:2",
      "ru_midpoint": [
        -0.17377348665583892,
        -0.17268124312946953
      ],
      "bond_midpoint": [
        -1.905784032740537,
        -0.17273916204316264
      ],
      "orientation_vector": [
        0.0,
        -1.0
      ],
      "half_bracket_size": 0.5000159978427487,
      "bond": [
        12,
        13
      ],
      "fragment": "F2",
      "backbone": true,
      "suspended_anchor_atom": null,
      "suspended_reason": null,
      "source_label": "F2/fragments[1]",
      "marker_id": "0",
      "side": "left",
      "connection_group": "$a",
      "marker_type_index": 2
    },
    {
      "id": 3,
      "bracket_kind": "backbone",
      "pairing_id": "F2/fragments[1]",
      "group_id": "$a:2",
      "ru_midpoint": [
        -0.17377348665583892,
        -0.17268124312946953
      ],
      "bond_midpoint": [
        1.558270495191341,
        -0.17268124312946964
      ],
      "orientation_vector": [
        0.0,
        -1.0
      ],
      "half_bracket_size": 0.5000159978427487,
      "bond": [
        17,
        18
      ],
      "fragment": "F2",
      "backbone": true,
      "suspended_anchor_atom": null,
      "suspended_reason": null,
      "source_label": "F2/fragments[1]",
      "marker_id": "6",
      "side": "right",
      "connection_group": "$a",
      "marker_type_index": 2
    },
    {
      "id": 4,
      "bracket_kind": "backbone",
      "pairing_id": "F2/fragments[2]",
      "group_id": "$a:2",
      "ru_midpoint": [
        2.4243298801955095,
        -0.17268124312946953
      ],
      "bond_midpoint": [
        1.558270495191341,
        -0.17268124312946964
      ],
      "orientation_vector": [
        0.0,
        1.0
      ],
      "half_bracket_size": 0.5000159978427487,
      "bond": [
        17,
        18
      ],
      "fragment": "F2",
      "backbone": true,
      "suspended_anchor_atom": null,
      "suspended_reason": null,
      "source_label": "F2/fragments[2]",
      "marker_id": "0",
      "side": "left",
      "connection_group": "$a",
      "marker_type_index": 2
    },
    {
      "id": 5,
      "bracket_kind": "backbone",
      "pairing_id": "F2/fragments[2]",
      "group_id": "$a:2",
      "ru_midpoint": [
        2.4243298801955095,
        -0.17268124312946953
      ],
      "bond_midpoint": [
        3.290349740643654,
        -0.17268124312946953
      ],
      "orientation_vector": [
        0.0,
        1.0
      ],
      "half_bracket_size": 0.5000159978427487,
      "bond": [
        19,
        23
      ],
      "fragment": "F2",
      "backbone": true,
      "suspended_anchor_atom": null,
      "suspended_reason": null,
      "source_label": "F2/fragments[2]",
      "marker_id": "6",
      "side": "right",
      "connection_group": "$a",
      "marker_type_index": 2
    },
    {
      "id": 6,
      "bracket_kind": "backbone",
      "pairing_id": "F2/fragments[3]",
      "group_id": "$a:2",
      "ru_midpoint": [
        4.156424384387211,
        -0.17268124312946953
      ],
      "bond_midpoint": [
        3.290349740643654,
        -0.17268124312946953
      ],
      "orientation_vector": [
        0.0,
        1.0
      ],
      "half_bracket_size": 0.5000159978427487,
      "bond": [
        19,
        23
      ],
      "fragment": "F2",
      "backbone": true,
      "suspended_anchor_atom": null,
      "suspended_reason": null,
      "source_label": "F2/fragments[3]",
      "marker_id": "0",
      "side": "left",
      "connection_group": "$a",
      "marker_type_index": 2
    },
    {
      "id": 7,
      "bracket_kind": "backbone",
      "pairing_id": "F2/fragments[3]",
      "group_id": "$a:2",
      "ru_midpoint": [
        4.156424384387211,
        -0.17268124312946953
      ],
      "bond_midpoint": [
        5.022441754848725,
        -0.17268924114812684
      ],
      "orientation_vector": [
        0.0,
        1.0
      ],
      "half_bracket_size": 0.5000159978427487,
      "bond": [
        1,
        24
      ],
      "fragment": "F2",
      "backbone": true,
      "suspended_anchor_atom": null,
      "suspended_reason": null,
      "source_label": "F2/fragments[3]",
      "marker_id": "6",
      "side": "right",
      "connection_group": "$a",
      "marker_type_index": 2
    },
    {
      "id": 8,
      "bracket_kind": "backbone",
      "pairing_id": "F2/connected",
      "group_id": "$overall",
      "ru_midpoint": [
        -0.17373350580178037,
        -0.17270606552105217
      ],
      "bond_midpoint": [
        -5.3697992286170395,
        -0.1727390820406417
      ],
      "orientation_vector": [
        0.0,
        -1.0
      ],
      "half_bracket_size": 2.9999470747103514,
      "bond": [
        5,
        8
      ],
      "fragment": "F2",
      "backbone": true,
      "suspended_anchor_atom": null,
      "suspended_reason": null,
      "source_label": "F2/connected",
      "marker_id": "connected-overall-left",
      "side": "left",
      "connection_group": "$overall",
      "marker_type_index": null
    },
    {
      "id": 9,
      "bracket_kind": "backbone",
      "pairing_id": "F2/connected",
      "group_id": "$overall",
      "ru_midpoint": [
        -0.17373350580178037,
        -0.17270606552105217
      ],
      "bond_midpoint": [
        5.022441754848725,
        -0.17268924114812684
      ],
      "orientation_vector": [
        0.0,
        -1.0
      ],
      "half_bracket_size": 2.9999470747103514,
      "bond": [
        1,
        24
      ],
      "fragment": "F2",
      "backbone": true,
      "suspended_anchor_atom": null,
      "suspended_reason": null,
      "source_label": "F2/connected",
      "marker_id": "connected-overall-right",
      "side": "right",
      "connection_group": "$overall",
      "marker_type_index": null
    },
    {
      "id": 10,
      "bracket_kind": "backbone",
      "pairing_id": "F1/fragments[0]",
      "group_id": ">1:4",
      "ru_midpoint": [
        -6.668735777723108,
        -0.1226869049894801
      ],
      "bond_midpoint": [
        -5.3697992286170395,
        -0.1727390820406417
      ],
      "orientation_vector": [
        0.0,
        1.0
      ],
      "half_bracket_size": 0.5001001599500253,
      "bond": [
        5,
        8
      ],
      "fragment": "F1",
      "backbone": true,
      "suspended_anchor_atom": null,
      "suspended_reason": null,
      "source_label": "F1/fragments[0]",
      "marker_id": "0",
      "side": "left",
      "connection_group": ">1",
      "marker_type_index": 4
    },
    {
      "id": 11,
      "bracket_kind": "backbone",
      "pairing_id": "F1/fragments[0]",
      "group_id": "<1:3",
      "ru_midpoint": [
        -6.668735777723108,
        -0.1226869049894801
      ],
      "bond_midpoint": [
        -7.9676652053356705,
        -0.17267811509713782
      ],
      "orientation_vector": [
        0.0,
        1.0
      ],
      "half_bracket_size": 0.5001001599500253,
      "bond": [
        0,
        7
      ],
      "fragment": "F1",
      "backbone": true,
      "suspended_anchor_atom": null,
      "suspended_reason": null,
      "source_label": "F1/fragments[0]",
      "marker_id": "4",
      "side": "right",
      "connection_group": "<1",
      "marker_type_index": 3
    }
  ]
}
