
     RDKit          2D

  0  0  0  0  0  0  0  0  0  0999 V3000
M  V30 BEGIN CTAB
M  V30 COUNTS 37 37 6 0 0
M  V30 BEGIN ATOM
M  V30 1 C -0.173487 -0.402541 0.000000 0
M  V30 2 C 0.692509 0.097559 0.000000 0
M  V30 3 C 1.558513 -0.402541 0.000000 0
M  V30 4 C 1.558513 -1.402541 0.000000 0
M  V30 5 H 14.549289 0.097396 0.000000 0
M  V30 6 C 2.424535 0.097465 0.000000 0
M  V30 7 C 3.290494 -0.402542 0.000000 0
M  V30 8 C 3.290494 -1.402544 0.000000 0
M  V30 9 C 2.424292 -1.902477 0.000000 0
M  V30 10 C 2.424492 -2.902479 0.000000 0
M  V30 11 C 3.290294 -3.402548 0.000000 0
M  V30 12 C 4.156496 -2.902615 0.000000 0
M  V30 13 C 4.156296 -1.902613 0.000000 0
M  V30 14 C 4.156556 0.097396 0.000000 0
M  V30 15 C 5.022560 -0.402504 0.000000 0
M  V30 16 C 5.022560 -1.402429 0.000000 0
M  V30 17 C 5.888643 0.097396 0.000000 0
M  V30 18 C 6.754755 -0.402504 0.000000 0
M  V30 19 C 6.754755 -1.402505 0.000000 0
M  V30 20 C 7.620838 0.097396 0.000000 0
M  V30 21 C 8.486996 -0.402502 0.000000 0
M  V30 22 C 8.486996 -1.402498 0.000000 0
M  V30 23 C 9.352967 0.097396 0.000000 0
M  V30 24 C 10.219068 -0.402502 0.000000 0
M  V30 25 C 10.219068 -1.402404 0.000000 0
M  V30 26 C 11.085152 0.097396 0.000000 0
M  V30 27 C 11.951205 -0.402604 0.000000 0
M  V30 28 C 11.951205 0.597321 0.000000 0
M  V30 29 C 11.951205 -1.402636 0.000000 0
M  V30 30 C 11.085059 -1.902477 0.000000 0
M  V30 31 C 11.085059 -2.902509 0.000000 0
M  V30 32 C 12.817231 0.097396 0.000000 0
M  V30 33 C 12.817231 -0.902356 0.000000 0
M  V30 34 C 13.683320 -0.402703 0.000000 0
M  V30 35 C 13.683320 -1.402554 0.000000 0
M  V30 36 C 12.817018 -1.902485 0.000000 0
M  V30 37 C 14.549249 -1.902722 0.000000 0
M  V30 END ATOM
M  V30 BEGIN BOND
M  V30 1 1 1 2
M  V30 2 1 2 3
M  V30 3 1 3 4
M  V30 4 1 6 7
M  V30 5 1 7 8
M  V30 6 2 8 9
M  V30 7 1 9 10
M  V30 8 2 10 11
M  V30 9 1 11 12
M  V30 10 2 12 13
M  V30 11 1 13 8
M  V30 12 1 3 6
M  V30 13 1 14 15
M  V30 14 1 15 16
M  V30 15 2 15 17
M  V30 16 1 17 18
M  V30 17 1 18 19
M  V30 18 1 20 21
M  V30 19 1 21 22
M  V30 20 2 21 23
M  V30 21 1 23 24
M  V30 22 1 24 25
M  V30 23 1 18 20
M  V30 24 1 26 27
M  V30 25 1 27 28
M  V30 26 1 27 29
M  V30 27 2 29 30 CFG=2
M  V30 28 1 30 31
M  V30 29 1 24 26
M  V30 30 1 32 33
M  V30 31 1 32 34
M  V30 32 1 34 35
M  V30 33 1 35 36
M  V30 34 2 35 37
M  V30 35 1 27 32
M  V30 36 1 7 14
M  V30 37 1 5 34
M  V30 END BOND
M  V30 BEGIN SGROUP
M  V30 1 SRU 0 ATOMS=(4 7 14 18 20) CBONDS=(2 23 36) -
M  V30 BRKXYZ=(9 3.7235 0.3475 0 3.7235 -0.6527 0 0 0 0) BRKXYZ=(9 7.1878 0.34-
M  V30 75 0 7.1878 -0.6527 0 0 0 0)
M  V30 2 SRU 0 ATOMS=(4 18 20 24 26) CBONDS=(2 23 29) -
M  V30 BRKXYZ=(9 7.1878 0.3475 0 7.1878 -0.6527 0 0 0 0) BRKXYZ=(9 10.6521 0.3-
M  V30 475 0 10.6521 -0.6527 0 0 0 0)
M  V30 3 SRU 0 ATOMS=(4 24 26 27 32) CBONDS=(2 29 35) -
M  V30 BRKXYZ=(9 10.6521 0.3475 0 10.6521 -0.6527 0 0 0 0) BRKXYZ=(9 12.3842 0-
M  V30 .3475 0 12.3842 -0.6527 0 0 0 0)
M  V30 4 SRU 0 ATOMS=(4 5 27 32 34) CBONDS=(2 35 37) -
M  V30 BRKXYZ=(9 12.3842 0.3475 0 12.3842 -0.6527 0 0 0 0) BRKXYZ=(9 14.1163 0-
M  V30 .3474 0 14.1163 -0.6528 0 0 0 0)
M  V30 5 SRU 0 ATOMS=(4 5 7 14 34) CBONDS=(2 36 37) -
M  V30 BRKXYZ=(9 3.7235 3.3473 0 3.7235 -3.6524 0 0 0 0) BRKXYZ=(9 14.1163 3.3-
M  V30 472 0 14.1163 -3.6525 0 0 0 0)
M  V30 6 SRU 0 ATOMS=(4 3 6 7 14) CBONDS=(2 12 36) -
M  V30 BRKXYZ=(9 1.9915 0.3475 0 1.9915 -0.6525 0 0 0 0) BRKXYZ=(9 3.7235 0.34-
M  V30 74 0 3.7235 -0.6526 0 0 0 0)
M  V30 END SGROUP
M  V30 END CTAB
M  END
>  <BIGSMILES_BRACKET_RECORDS_JSON>
{
  "records": [
    {
      "id": 0,
      "bracket_kind": "backbone",
      "pairing_id": "F2/fragments[0]",
      "group_id": "$a:2",
      "ru_midpoint": [
        5.455657943630705,
        -0.15255411104166466
      ],
      "bond_midpoint": [
        3.723524864647205,
        -0.1525729094081636
      ],
      "orientation_vector": [
        0.0,
        1.0
      ],
      "half_bracket_size": 0.5000989665530182,
      "bond": [
        6,
        13
      ],
      "fragment": "F2",
      "backbone": true,
      "suspended_anchor_atom": null,
      "suspended_reason": null,
      "source_label": "F2/fragments[0]",
      "marker_id": "0",
      "side": "left",
      "connection_group": "$a",
      "marker_type_index": 2
    },
    {
      "id": 1,
      "bracket_kind": "backbone",
      "pairing_id": "F2/fragments[0]",
      "group_id": "$a:2",
      "ru_midpoint": [
        5.455657943630705,
        -0.15255411104166466
      ],
      "bond_midpoint": [
        7.187796331164137,
        -0.15255411104166477
      ],
      "orientation_vector": [
        0.0,
        1.0
      ],
      "half_bracket_size": 0.5000989665530182,
      "bond": [
        17,
        19
      ],
      "fragment": "F2",
      "backbone": true,
      "suspended_anchor_atom": null,
      "suspended_reason": null,
      "source_label": "F2/fragments[0]",
      "marker_id": "7",
      "side": "right",
      "connection_group": "$a",
      "marker_type_index": 2
    },
    {
      "id": 2,
      "bracket_kind": "backbone",
      "pairing_id": "F2/fragments[1]",
      "group_id": "$a:2",
      "ru_midpoint": [
        8.919999679397709,
        -0.15255319064843387
      ],
      "bond_midpoint": [
        7.187796331164137,
        -0.15255411104166477
      ],
      "orientation_vector": [
        0.0,
        1.0
      ],
      "half_bracket_size": 0.5000989665530182,
      "bond": [
        17,
        19
      ],
      "fragment": "F2",
      "backbone": true,
      "suspended_anchor_atom": null,
      "suspended_reason": null,
      "source_label": "F2/fragments[1]",
      "marker_id": "0",
      "side": "left",
      "connection_group": "$a",
      "marker_type_index": 2
    },
    {
      "id": 3,
      "bracket_kind": "backbone",
      "pairing_id": "F2/fragments[1]",
      "group_id": "$a:2",
      "ru_midpoint": [
        8.919999679397709,
        -0.15255319064843387
      ],
      "bond_midpoint": [
        10.652109598218349,
        -0.15255319064843384
      ],
      "orientation_vector": [
        0.0,
        1.0
      ],
      "half_bracket_size": 0.5000989665530182,
      "bond": [
        23,
        25
      ],
      "fragment": "F2",
      "backbone": true,
      "suspended_anchor_atom": null,
      "suspended_reason": null,
      "source_label": "F2/fragments[1]",
      "marker_id": "7",
      "side": "right",
      "connection_group": "$a",
      "marker_type_index": 2
    },
    {
      "id": 4,
      "bracket_kind": "backbone",
      "pairing_id": "F2/fragments[2]",
      "group_id": "$a:2",
      "ru_midpoint": [
        11.518207451227221,
        -0.15260410959858084
      ],
      "bond_midpoint": [
        10.652109598218349,
        -0.15255319064843384
      ],
      "orientation_vector": [
        0.0,
        1.0
      ],
      "half_bracket_size": 0.5000989665530182,
      "bond": [
        23,
        25
      ],
      "fragment": "F2",
      "backbone": true,
      "suspended_anchor_atom": null,
      "suspended_reason": null,
      "source_label": "F2/fragments[2]",
      "marker_id": "0",
      "side": "left",
      "connection_group": "$a",
      "marker_type_index": 2
    },
    {
      "id": 5,
      "bracket_kind": "backbone",
      "pairing_id": "F2/fragments[2]",
      "group_id": "$a:2",
      "ru_midpoint": [
        11.518207451227221,
        -0.15260410959858084
      ],
      "bond_midpoint": [
        12.384218092890546,
        -0.15260410959858084
      ],
      "orientation_vector": [
        0.0,
        1.0
      ],
      "half_bracket_size": 0.5000989665530182,
      "bond": [
        26,
        31
      ],
      "fragment": "F2",
      "backbone": true,
      "suspended_anchor_atom": null,
      "suspended_reason": null,
      "source_label": "F2/fragments[2]",
      "marker_id": "7",
      "side": "right",
      "connection_group": "$a",
      "marker_type_index": 2
    },
    {
      "id": 6,
      "bracket_kind": "backbone",
      "pairing_id": "F2/fragments[3]",
      "group_id": "$a:2",
      "ru_midpoint": [
        13.250275499897535,
        -0.15265351431049246
      ],
      "bond_midpoint": [
        12.384218092890546,
        -0.15260410959858084
      ],
      "orientation_vector": [
        0.0,
        1.0
      ],
      "half_bracket_size": 0.5000989665530182,
      "bond": [
        26,
        31
      ],
      "fragment": "F2",
      "backbone": true,
      "suspended_anchor_atom": null,
      "suspended_reason": null,
      "source_label": "F2/fragments[3]",
      "marker_id": "0",
      "side": "left",
      "connection_group": "$a",
      "marker_type_index": 2
    },
    {
      "id": 7,
      "bracket_kind": "backbone",
      "pairing_id": "F2/fragments[3]",
      "group_id": "$a:2",
      "ru_midpoint": [
        13.250275499897535,
        -0.15265351431049246
      ],
      "bond_midpoint": [
        14.116304425520031,
        -0.15265359432628867
      ],
      "orientation_vector": [
        0.0,
        1.0
      ],
      "half_bracket_size": 0.5000989665530182,
      "bond": [
        4,
        33
      ],
      "fragment": "F2",
      "backbone": true,
      "suspended_anchor_atom": null,
      "suspended_reason": null,
      "source_label": "F2/fragments[3]",
      "marker_id": "7",
      "side": "right",
      "connection_group": "$a",
      "marker_type_index": 2
    },
    {
      "id": 8,
      "bracket_kind": "backbone",
      "pairing_id": "F2/connected",
      "group_id": "$overall",
      "ru_midpoint": [
        8.919938468914854,
        -0.15257519119013352
      ],
      "bond_midpoint": [
        3.723524864647205,
        -0.1525729094081636
      ],
      "orientation_vector": [
        0.0,
        1.0
      ],
      "half_bracket_size": 3.499829121513798,
      "bond": [
        6,
        13
      ],
      "fragment": "F2",
      "backbone": true,
      "suspended_anchor_atom": null,
      "suspended_reason": null,
      "source_label": "F2/connected",
      "marker_id": "connected-overall-left",
      "side": "left",
      "connection_group": "$overall",
      "marker_type_index": null
    },
    {
      "id": 9,
      "bracket_kind": "backbone",
      "pairing_id": "F2/connected",
      "group_id": "$overall",
      "ru_midpoint": [
        8.919938468914854,
        -0.15257519119013352
      ],
      "bond_midpoint": [
        14.116304425520031,
        -0.15265359432628867
      ],
      "orientation_vector": [
        0.0,
        1.0
      ],
      "half_bracket_size": 3.499829121513798,
      "bond": [
        4,
        33
      ],
      "fragment": "F2",
      "backbone": true,
      "suspended_anchor_atom": null,
      "suspended_reason": null,
      "source_label": "F2/connected",
      "marker_id": "connected-overall-right",
      "side": "right",
      "connection_group": "$overall",
      "marker_type_index": null
    },
    {
      "id": 10,
      "bracket_kind": "backbone",
      "pairing_id": "F1/fragments[0]",
      "group_id": "$a:2",
      "ru_midpoint": [
        2.85748917245169,
        -0.15253825832772722
      ],
      "bond_midpoint": [
        1.9915241328520294,
        -0.15253775832216837
      ],
      "orientation_vector": [
        0.0,
        1.0
      ],
      "half_bracket_size": 0.5000070589092322,
      "bond": [
        2,
        5
      ],
      "fragment": "F1",
      "backbone": true,
      "suspended_anchor_atom": null,
      "suspended_reason": null,
      "source_label": "F1/fragments[0]",
      "marker_id": "0",
      "side": "left",
      "connection_group": "$a",
      "marker_type_index": 2
    },
    {
      "id": 11,
      "bracket_kind": "backbone",
      "pairing_id": "F1/fragments[0]",
      "group_id": "$a:2",
      "ru_midpoint": [
        2.85748917245169,
        -0.15253825832772722
      ],
      "bond_midpoint": [
        3.723524864647205,
        -0.1525729094081636
      ],
      "orientation_vector": [
        0.0,
        1.0
      ],
      "half_bracket_size": 0.5000070589092322,
      "bond": [
        6,
        13
      ],
      "fragment": "F1",
      "backbone": true,
      "suspended_anchor_atom": null,
      "suspended_reason": null,
      "source_label": "F1/fragments[0]",
      "marker_id": "9",
      "side": "right",
      "connection_group": "$a",
      "marker_type_index": 2
    }
  ]
}
