
     RDKit          2D

  0  0  0  0  0  0  0  0  0  0999 V3000
M  V30 BEGIN CTAB
M  V30 COUNTS 35 37 2 0 0
M  V30 BEGIN ATOM
M  V30 1 C -6.190177 -0.711143 0.000000 0
M  V30 2 C -5.324172 -0.211243 0.000000 0
M  V30 3 C 4.314353 -0.711007 0.000000 0
M  V30 4 C 4.314353 0.288918 0.000000 0
M  V30 5 C 4.314353 -1.711039 0.000000 0
M  V30 6 C 5.180473 -0.211107 0.000000 0
M  V30 7 C -4.373093 -0.520189 0.000000 0
M  V30 8 C -3.564141 0.067652 0.000000 0
M  V30 9 C -2.755128 -0.520106 0.000000 0
M  V30 10 C -3.064029 -1.471217 0.000000 0
M  V30 11 C -2.440584 -2.252805 0.000000 0
M  V30 12 N -2.662919 -3.227872 0.000000 0
M  V30 13 C -1.881141 -3.851287 0.000000 0
M  V30 14 C -2.504472 -4.633178 0.000000 0
M  V30 15 C -1.515619 -4.782110 0.000000 0
M  V30 16 C -0.950333 -3.485864 0.000000 0
M  V30 17 Sn -3.563979 -3.661619 0.000000 0 VAL=4
M  V30 18 Cl -3.563979 -2.661744 0.000000 0
M  V30 19 Cl -3.564014 -4.661688 0.000000 0
M  V30 20 N -4.464805 -3.227908 0.000000 0
M  V30 21 C -5.246605 -3.851394 0.000000 0
M  V30 22 C -4.623120 -4.633194 0.000000 0
M  V30 23 C -5.611915 -4.782243 0.000000 0
M  V30 24 C -6.177372 -3.486140 0.000000 0
M  V30 25 C -4.687270 -2.252952 0.000000 0
M  V30 26 C -4.064044 -1.471134 0.000000 0
M  V30 27 C -1.804094 -0.211019 0.000000 0
M  V30 28 C -0.937787 -0.711006 0.000000 0
M  V30 29 C 0.013270 -0.401989 0.000000 0
M  V30 30 C 0.822282 -0.989771 0.000000 0
M  V30 31 C 0.322285 0.549062 0.000000 0
M  V30 32 C 1.322279 0.549062 0.000000 0
M  V30 33 C 1.631294 -0.401989 0.000000 0
M  V30 34 C 2.582351 -0.711006 0.000000 0
M  V30 35 C 3.448329 -0.211005 0.000000 0
M  V30 END ATOM
M  V30 BEGIN BOND
M  V30 1 2 1 2
M  V30 2 1 3 4
M  V30 3 1 3 5
M  V30 4 1 3 6
M  V30 5 1 7 8
M  V30 6 1 8 9
M  V30 7 1 9 10
M  V30 8 1 10 11
M  V30 9 1 11 12
M  V30 10 1 12 13
M  V30 11 1 13 14
M  V30 12 1 13 15
M  V30 13 1 13 16
M  V30 14 1 12 17
M  V30 15 1 17 18
M  V30 16 1 17 19
M  V30 17 1 17 20
M  V30 18 1 20 21
M  V30 19 1 21 22
M  V30 20 1 21 23
M  V30 21 1 21 24
M  V30 22 1 20 25
M  V30 23 1 25 26
M  V30 24 1 9 27
M  V30 25 2 27 28 CFG=2
M  V30 26 1 26 7
M  V30 27 1 26 10
M  V30 28 1 2 7
M  V30 29 1 29 30
M  V30 30 1 29 31
M  V30 31 1 31 32
M  V30 32 1 32 33
M  V30 33 1 33 34
M  V30 34 2 34 35 CFG=2
M  V30 35 1 33 30
M  V30 36 1 28 29
M  V30 37 1 3 35
M  V30 END BOND
M  V30 BEGIN SGROUP
M  V30 1 SRU 0 ATOMS=(4 3 28 29 35) CBONDS=(2 36 37) -
M  V30 BRKXYZ=(9 -0.4623 -2.0953 0 -0.4623 0.9823 0 0 0 0) BRKXYZ=(9 3.8813 -1-
M  V30 .9998 0 3.8813 1.0778 0 0 0 0)
M  V30 2 SRU 0 ATOMS=(4 2 7 28 29) CBONDS=(2 28 36) -
M  V30 BRKXYZ=(9 -4.8486 3.3636 0 -4.8486 -4.0950 0 0 0 0) BRKXYZ=(9 -0.4623 3-
M  V30 .1728 0 -0.4623 -4.2858 0 0 0 0)
M  V30 END SGROUP
M  V30 END CTAB
M  END
>  <BIGSMILES_BRACKET_RECORDS_JSON>
{
  "records": [
    {
      "id": 0,
      "bracket_kind": "backbone",
      "pairing_id": "F2/fragments[0]",
      "group_id": "<1:3",
      "ru_midpoint": [
        1.5020726576146428,
        -0.3377386071182261
      ],
      "bond_midpoint": [
        -0.46225842112412835,
        -0.5564973524777685
      ],
      "orientation_vector": [
        0.0,
        -1.0
      ],
      "half_bracket_size": 1.5388324854606004,
      "bond": [
        27,
        28
      ],
      "fragment": "F2",
      "backbone": true,
      "suspended_anchor_atom": null,
      "suspended_reason": null,
      "source_label": "F2/fragments[0]",
      "marker_id": "0",
      "side": "left",
      "connection_group": "<1",
      "marker_type_index": 3
    },
    {
      "id": 1,
      "bracket_kind": "backbone",
      "pairing_id": "F2/fragments[0]",
      "group_id": ">1:4",
      "ru_midpoint": [
        1.5020726576146428,
        -0.3377386071182261
      ],
      "bond_midpoint": [
        3.8813408756538226,
        -0.46100609992284786
      ],
      "orientation_vector": [
        0.0,
        -1.0
      ],
      "half_bracket_size": 1.5388324854606004,
      "bond": [
        2,
        34
      ],
      "fragment": "F2",
      "backbone": true,
      "suspended_anchor_atom": null,
      "suspended_reason": null,
      "source_label": "F2/fragments[0]",
      "marker_id": "8",
      "side": "right",
      "connection_group": ">1",
      "marker_type_index": 4
    },
    {
      "id": 2,
      "bracket_kind": "backbone",
      "pairing_id": "F1/fragments[0]",
      "group_id": "<1:3",
      "ru_midpoint": [
        -3.127001851133253,
        -1.4201739985718516
      ],
      "bond_midpoint": [
        -4.8486326583794135,
        -0.3657158134929175
      ],
      "orientation_vector": [
        0.0,
        1.0
      ],
      "half_bracket_size": 3.7292717216486926,
      "bond": [
        1,
        6
      ],
      "fragment": "F1",
      "backbone": true,
      "suspended_anchor_atom": null,
      "suspended_reason": null,
      "source_label": "F1/fragments[0]",
      "marker_id": "0",
      "side": "left",
      "connection_group": "<1",
      "marker_type_index": 3
    },
    {
      "id": 3,
      "bracket_kind": "backbone",
      "pairing_id": "F1/fragments[0]",
      "group_id": ">1:4",
      "ru_midpoint": [
        -3.127001851133253,
        -1.4201739985718516
      ],
      "bond_midpoint": [
        -0.46225842112412835,
        -0.5564973524777685
      ],
      "orientation_vector": [
        0.0,
        1.0
      ],
      "half_bracket_size": 3.7292717216486926,
      "bond": [
        27,
        28
      ],
      "fragment": "F1",
      "backbone": true,
      "suspended_anchor_atom": null,
      "suspended_reason": null,
      "source_label": "F1/fragments[0]",
      "marker_id": "23",
      "side": "right",
      "connection_group": ">1",
      "marker_type_index": 4
    }
  ]
}
