
     RDKit          2D

  0  0  0  0  0  0  0  0  0  0999 V3000
M  V30 BEGIN CTAB
M  V30 COUNTS 45 49 3 0 0
M  V30 BEGIN ATOM
M  V30 1 H -12.098406 0.051337 0.000000 0
M  V30 2 H 12.098008 -0.948562 0.000000 0
M  V30 3 C -11.098406 -0.448663 0.000000 0
M  V30 4 O -11.357236 0.517304 0.000000 0
M  V30 5 C -10.098406 -0.448663 0.000000 0
M  V30 6 C -9.598418 0.417341 0.000000 0
M  V30 7 C -8.598443 0.417341 0.000000 0
M  V30 8 C -8.098455 -0.448663 0.000000 0
M  V30 9 C -8.598443 -1.314667 0.000000 0
M  V30 10 C -9.598418 -1.314667 0.000000 0
M  V30 11 C -7.098455 -0.448663 0.000000 0
M  V30 12 O -6.839635 -1.414595 0.000000 0
M  V30 13 N -6.232479 0.051309 0.000000 0
M  V30 14 C -5.232479 0.051309 0.000000 0
M  V30 15 C -4.732452 0.917381 0.000000 0
M  V30 16 C -3.732398 0.917381 0.000000 0
M  V30 17 C -3.232371 0.051309 0.000000 0
M  V30 18 C -3.732398 -0.814763 0.000000 0
M  V30 19 C -4.732452 -0.814763 0.000000 0
M  V30 20 N -2.232371 0.051309 0.000000 0
M  V30 21 N -1.232371 0.051309 0.000000 0
M  V30 22 C -0.232371 0.051309 0.000000 0
M  V30 23 C 0.267642 0.917356 0.000000 0
M  V30 24 C 1.267667 0.917356 0.000000 0
M  V30 25 C 1.767679 0.051309 0.000000 0
M  V30 26 C 1.267667 -0.814738 0.000000 0
M  V30 27 C 0.267642 -0.814738 0.000000 0
M  V30 28 O 2.767679 0.051309 0.000000 0
M  V30 29 C 3.633705 -0.448691 0.000000 0
M  V30 30 C 4.499777 0.051336 0.000000 0
M  V30 31 C 5.365849 -0.448691 0.000000 0
M  V30 32 C 5.365849 -1.448745 0.000000 0
M  V30 33 C 4.499777 -1.948772 0.000000 0
M  V30 34 C 3.633705 -1.448745 0.000000 0
M  V30 35 N 6.231874 0.051309 0.000000 0
M  V30 36 C 7.098024 -0.448562 0.000000 0
M  V30 37 O 6.839287 -1.414517 0.000000 0
M  V30 38 C 8.098024 -0.448562 0.000000 0
M  V30 39 C 8.598020 -1.314581 0.000000 0
M  V30 40 C 9.598012 -1.314581 0.000000 0
M  V30 41 C 10.098008 -0.448562 0.000000 0
M  V30 42 C 9.598012 0.417456 0.000000 0
M  V30 43 C 8.598020 0.417456 0.000000 0
M  V30 44 C 11.098008 -0.448562 0.000000 0
M  V30 45 O 11.356857 0.517477 0.000000 0
M  V30 END ATOM
M  V30 BEGIN BOND
M  V30 1 2 3 4
M  V30 2 1 3 5
M  V30 3 2 5 6
M  V30 4 1 6 7
M  V30 5 2 7 8
M  V30 6 1 8 9
M  V30 7 2 9 10
M  V30 8 1 8 11
M  V30 9 2 11 12
M  V30 10 1 11 13
M  V30 11 1 13 14
M  V30 12 2 14 15
M  V30 13 1 15 16
M  V30 14 2 16 17
M  V30 15 1 17 18
M  V30 16 2 18 19
M  V30 17 1 17 20
M  V30 18 1 10 5
M  V30 19 1 19 14
M  V30 20 1 21 22
M  V30 21 2 22 23
M  V30 22 1 23 24
M  V30 23 2 24 25
M  V30 24 1 25 26
M  V30 25 2 26 27
M  V30 26 1 25 28
M  V30 27 1 28 29
M  V30 28 2 29 30
M  V30 29 1 30 31
M  V30 30 2 31 32
M  V30 31 1 32 33
M  V30 32 2 33 34
M  V30 33 1 31 35
M  V30 34 1 35 36
M  V30 35 2 36 37
M  V30 36 1 36 38
M  V30 37 2 38 39
M  V30 38 1 39 40
M  V30 39 2 40 41
M  V30 40 1 41 42
M  V30 41 2 42 43
M  V30 42 1 41 44
M  V30 43 2 44 45
M  V30 44 1 27 22
M  V30 45 1 34 29
M  V30 46 1 43 38
M  V30 47 1 20 21
M  V30 48 1 1 3
M  V30 49 1 2 44
M  V30 END BOND
M  V30 BEGIN SGROUP
M  V30 1 SRU 0 ATOMS=(4 1 3 20 21) CBONDS=(2 47 48) -
M  V30 BRKXYZ=(9 -11.5984 2.6675 0 -11.5984 -3.0648 0 0 0 0) BRKXYZ=(9 -1.7324-
M  V30  2.9174 0 -1.7324 -2.8148 0 0 0 0)
M  V30 2 SRU 0 ATOMS=(4 2 20 21 44) CBONDS=(2 47 49) -
M  V30 BRKXYZ=(9 -1.7324 2.9174 0 -1.7324 -2.8148 0 0 0 0) BRKXYZ=(9 11.5980 2-
M  V30 .1676 0 11.5980 -3.5647 0 0 0 0)
M  V30 3 SRU 0 ATOMS=(4 1 2 3 44) CBONDS=(2 48 49) -
M  V30 BRKXYZ=(9 -11.5984 2.9541 0 -11.5984 -3.3514 0 0 0 0) BRKXYZ=(9 11.5980-
M  V30  2.4542 0 11.5980 -3.8513 0 0 0 0)
M  V30 END SGROUP
M  V30 END CTAB
M  END
>  <BIGSMILES_BRACKET_RECORDS_JSON>
{
  "records": [
    {
      "id": 0,
      "bracket_kind": "backbone",
      "pairing_id": "F1/fragments[0]",
      "group_id": "<1:3",
      "ru_midpoint": [
        -6.732404140690927,
        -0.19868448907016756
      ],
      "bond_midpoint": [
        -11.598405809584143,
        -0.1986630140141812
      ],
      "orientation_vector": [
        0.0,
        1.0
      ],
      "half_bracket_size": 2.866128035934362,
      "bond": [
        0,
        2
      ],
      "fragment": "F1",
      "backbone": true,
      "suspended_anchor_atom": null,
      "suspended_reason": null,
      "source_label": "F1/fragments[0]",
      "marker_id": "0",
      "side": "left",
      "connection_group": "<1",
      "marker_type_index": 3
    },
    {
      "id": 1,
      "bracket_kind": "backbone",
      "pairing_id": "F1/fragments[0]",
      "group_id": ">1:4",
      "ru_midpoint": [
        -6.732404140690927,
        -0.19868448907016756
      ],
      "bond_midpoint": [
        -1.7323710015762517,
        0.051308755188839594
      ],
      "orientation_vector": [
        0.0,
        1.0
      ],
      "half_bracket_size": 2.866128035934362,
      "bond": [
        19,
        20
      ],
      "fragment": "F1",
      "backbone": true,
      "suspended_anchor_atom": null,
      "suspended_reason": null,
      "source_label": "F1/fragments[0]",
      "marker_id": "19",
      "side": "right",
      "connection_group": ">1",
      "marker_type_index": 4
    },
    {
      "id": 2,
      "bracket_kind": "backbone",
      "pairing_id": "F1/fragments[1]",
      "group_id": "<1:3",
      "ru_midpoint": [
        4.9478506279768615,
        -0.40865032489234343
      ],
      "bond_midpoint": [
        -1.7323710015762517,
        0.051308755188839594
      ],
      "orientation_vector": [
        0.0,
        1.0
      ],
      "half_bracket_size": 2.866128035934362,
      "bond": [
        19,
        20
      ],
      "fragment": "F1",
      "backbone": true,
      "suspended_anchor_atom": null,
      "suspended_reason": null,
      "source_label": "F1/fragments[1]",
      "marker_id": "0",
      "side": "left",
      "connection_group": "<1",
      "marker_type_index": 3
    },
    {
      "id": 3,
      "bracket_kind": "backbone",
      "pairing_id": "F1/fragments[1]",
      "group_id": ">1:4",
      "ru_midpoint": [
        4.9478506279768615,
        -0.40865032489234343
      ],
      "bond_midpoint": [
        11.598007582078088,
        -0.6985623809632027
      ],
      "orientation_vector": [
        0.0,
        1.0
      ],
      "half_bracket_size": 2.866128035934362,
      "bond": [
        1,
        43
      ],
      "fragment": "F1",
      "backbone": true,
      "suspended_anchor_atom": null,
      "suspended_reason": null,
      "source_label": "F1/fragments[1]",
      "marker_id": "26",
      "side": "right",
      "connection_group": ">1",
      "marker_type_index": 4
    },
    {
      "id": 4,
      "bracket_kind": "backbone",
      "pairing_id": "F1/connected",
      "group_id": "$overall",
      "ru_midpoint": [
        -0.03534364397324552,
        -0.13318027043446756
      ],
      "bond_midpoint": [
        -11.598405809584143,
        -0.1986630140141812
      ],
      "orientation_vector": [
        0.0,
        1.0
      ],
      "half_bracket_size": 3.1527408395277985,
      "bond": [
        0,
        2
      ],
      "fragment": "F1",
      "backbone": true,
      "suspended_anchor_atom": null,
      "suspended_reason": null,
      "source_label": "F1/connected",
      "marker_id": "connected-overall-left",
      "side": "left",
      "connection_group": "$overall",
      "marker_type_index": null
    },
    {
      "id": 5,
      "bracket_kind": "backbone",
      "pairing_id": "F1/connected",
      "group_id": "$overall",
      "ru_midpoint": [
        -0.03534364397324552,
        -0.13318027043446756
      ],
      "bond_midpoint": [
        11.598007582078088,
        -0.6985623809632027
      ],
      "orientation_vector": [
        0.0,
        1.0
      ],
      "half_bracket_size": 3.1527408395277985,
      "bond": [
        1,
        43
      ],
      "fragment": "F1",
      "backbone": true,
      "suspended_anchor_atom": null,
      "suspended_reason": null,
      "source_label": "F1/connected",
      "marker_id": "connected-overall-right",
      "side": "right",
      "connection_group": "$overall",
      "marker_type_index": null
    }
  ]
}
