
     RDKit          2D

  0  0  0  0  0  0  0  0  0  0999 V3000
M  V30 BEGIN CTAB
M  V30 COUNTS 14 13 4 0 0
M  V30 BEGIN ATOM
M  V30 1 H 2.165160 -0.252457 0.000000 0
M  V30 2 H 9.959388 0.247543 0.000000 0
M  V30 3 C 3.031164 0.247443 0.000000 0
M  V30 4 C 3.897168 -0.252457 0.000000 0
M  V30 5 C 3.897168 -1.252482 0.000000 0
M  V30 6 C 3.031016 -1.752326 0.000000 0
M  V30 7 C 4.763251 0.247443 0.000000 0
M  V30 8 C 5.629256 -0.252457 0.000000 0
M  V30 9 C 6.495252 0.247443 0.000000 0
M  V30 10 C 7.361256 -0.252457 0.000000 0
M  V30 11 Si 8.227282 0.247543 0.000000 0 VAL=4
M  V30 12 C 8.227282 -0.752382 0.000000 0
M  V30 13 C 8.227282 1.247567 0.000000 0
M  V30 14 O 9.093335 -0.252473 0.000000 0
M  V30 END ATOM
M  V30 BEGIN BOND
M  V30 1 1 3 4
M  V30 2 1 4 5
M  V30 3 1 5 6
M  V30 4 1 7 8
M  V30 5 1 8 9
M  V30 6 1 9 10
M  V30 7 1 4 7
M  V30 8 1 1 3
M  V30 9 1 11 12
M  V30 10 1 11 13
M  V30 11 1 11 14
M  V30 12 1 10 11
M  V30 13 1 2 14
M  V30 END BOND
M  V30 BEGIN SGROUP
M  V30 1 SRU 0 ATOMS=(4 2 10 11 14) CBONDS=(2 12 13) -
M  V30 BRKXYZ=(9 7.7943 -0.5025 0 7.7943 0.4976 0 0 0 0) BRKXYZ=(9 9.5264 -0.5-
M  V30 025 0 9.5264 0.4976 0 0 0 0)
M  V30 2 SRU 0 ATOMS=(4 1 3 4 7) CBONDS=(2 7 8) -
M  V30 BRKXYZ=(9 2.5982 0.4974 0 2.5982 -0.5024 0 0 0 0) BRKXYZ=(9 4.3302 0.49-
M  V30 74 0 4.3302 -0.5024 0 0 0 0)
M  V30 3 SRU 0 ATOMS=(4 4 7 10 11) CBONDS=(2 7 12) -
M  V30 BRKXYZ=(9 4.3302 0.4974 0 4.3302 -0.5024 0 0 0 0) BRKXYZ=(9 7.7943 0.49-
M  V30 74 0 7.7943 -0.5024 0 0 0 0)
M  V30 4 SRU 0 ATOMS=(4 1 3 10 11) CBONDS=(2 8 12) -
M  V30 BRKXYZ=(9 2.5982 1.9973 0 2.5982 -2.0023 0 0 0 0) BRKXYZ=(9 7.7943 1.99-
M  V30 73 0 7.7943 -2.0022 0 0 0 0)
M  V30 END SGROUP
M  V30 END CTAB
M  END
>  <BIGSMILES_BRACKET_RECORDS_JSON>
{
  "records": [
    {
      "id": 0,
      "bracket_kind": "backbone",
      "pairing_id": "F2/fragments[0]",
      "group_id": "<1:3",
      "ru_midpoint": [
        8.660321143613327,
        -0.0024592140445335196
      ],
      "bond_midpoint": [
        7.794269086890623,
        -0.00245737914176479
      ],
      "orientation_vector": [
        0.0,
        -1.0
      ],
      "half_bracket_size": 0.5000159997440081,
      "bond": [
        9,
        10
      ],
      "fragment": "F2",
      "backbone": true,
      "suspended_anchor_atom": null,
      "suspended_reason": null,
      "source_label": "F2/fragments[0]",
      "marker_id": "0",
      "side": "left",
      "connection_group": "<1",
      "marker_type_index": 3
    },
    {
      "id": 1,
      "bracket_kind": "backbone",
      "pairing_id": "F2/fragments[0]",
      "group_id": ">1:4",
      "ru_midpoint": [
        8.660321143613327,
        -0.0024592140445335196
      ],
      "bond_midpoint": [
        9.526361463013796,
        -0.0024653790137689063
      ],
      "orientation_vector": [
        0.0,
        -1.0
      ],
      "half_bracket_size": 0.5000159997440081,
      "bond": [
        1,
        13
      ],
      "fragment": "F2",
      "backbone": true,
      "suspended_anchor_atom": null,
      "suspended_reason": null,
      "source_label": "F2/fragments[0]",
      "marker_id": "5",
      "side": "right",
      "connection_group": ">1",
      "marker_type_index": 4
    },
    {
      "id": 2,
      "bracket_kind": "backbone",
      "pairing_id": "F1/fragments[0]",
      "group_id": "$a:2",
      "ru_midpoint": [
        3.4642165310467368,
        -0.002488500767585211
      ],
      "bond_midpoint": [
        2.598161882622505,
        -0.002507299134084262
      ],
      "orientation_vector": [
        0.0,
        1.0
      ],
      "half_bracket_size": 0.49990016001536275,
      "bond": [
        0,
        2
      ],
      "fragment": "F1",
      "backbone": true,
      "suspended_anchor_atom": null,
      "suspended_reason": null,
      "source_label": "F1/fragments[0]",
      "marker_id": "0",
      "side": "left",
      "connection_group": "$a",
      "marker_type_index": 2
    },
    {
      "id": 3,
      "bracket_kind": "backbone",
      "pairing_id": "F1/fragments[0]",
      "group_id": "$a:2",
      "ru_midpoint": [
        3.4642165310467368,
        -0.002488500767585211
      ],
      "bond_midpoint": [
        4.330209940680826,
        -0.002507299134084262
      ],
      "orientation_vector": [
        0.0,
        1.0
      ],
      "half_bracket_size": 0.49990016001536275,
      "bond": [
        3,
        6
      ],
      "fragment": "F1",
      "backbone": true,
      "suspended_anchor_atom": null,
      "suspended_reason": null,
      "source_label": "F1/fragments[0]",
      "marker_id": "5",
      "side": "right",
      "connection_group": "$a",
      "marker_type_index": 2
    },
    {
      "id": 4,
      "bracket_kind": "backbone",
      "pairing_id": "F1/fragments[1]",
      "group_id": "$a:2",
      "ru_midpoint": [
        6.062253922528007,
        -0.0025072991340840288
      ],
      "bond_midpoint": [
        4.330209940680826,
        -0.002507299134084262
      ],
      "orientation_vector": [
        0.0,
        1.0
      ],
      "half_bracket_size": 0.49990016001536275,
      "bond": [
        3,
        6
      ],
      "fragment": "F1",
      "backbone": true,
      "suspended_anchor_atom": null,
      "suspended_reason": null,
      "source_label": "F1/fragments[1]",
      "marker_id": "0",
      "side": "left",
      "connection_group": "$a",
      "marker_type_index": 2
    },
    {
      "id": 5,
      "bracket_kind": "backbone",
      "pairing_id": "F1/fragments[1]",
      "group_id": "$a:2",
      "ru_midpoint": [
        6.062253922528007,
        -0.0025072991340840288
      ],
      "bond_midpoint": [
        7.794269086890623,
        -0.00245737914176479
      ],
      "orientation_vector": [
        0.0,
        1.0
      ],
      "half_bracket_size": 0.49990016001536275,
      "bond": [
        9,
        10
      ],
      "fragment": "F1",
      "backbone": true,
      "suspended_anchor_atom": null,
      "suspended_reason": null,
      "source_label": "F1/fragments[1]",
      "marker_id": "5",
      "side": "right",
      "connection_group": "$a",
      "marker_type_index": 2
    },
    {
      "id": 6,
      "bracket_kind": "backbone",
      "pairing_id": "F1/connected",
      "group_id": "$overall",
      "ru_midpoint": [
        5.196249566517189,
        -0.002488500767584878
      ],
      "bond_midpoint": [
        2.598161882622505,
        -0.002507299134084262
      ],
      "orientation_vector": [
        0.0,
        1.0
      ],
      "half_bracket_size": 1.9997688137103982,
      "bond": [
        0,
        2
      ],
      "fragment": "F1",
      "backbone": true,
      "suspended_anchor_atom": null,
      "suspended_reason": null,
      "source_label": "F1/connected",
      "marker_id": "connected-overall-left",
      "side": "left",
      "connection_group": "$overall",
      "marker_type_index": null
    },
    {
      "id": 7,
      "bracket_kind": "backbone",
      "pairing_id": "F1/connected",
      "group_id": "$overall",
      "ru_midpoint": [
        5.196249566517189,
        -0.002488500767584878
      ],
      "bond_midpoint": [
        7.794269086890623,
        -0.00245737914176479
      ],
      "orientation_vector": [
        0.0,
        1.0
      ],
      "half_bracket_size": 1.9997688137103982,
      "bond": [
        9,
        10
      ],
      "fragment": "F1",
      "backbone": true,
      "suspended_anchor_atom": null,
      "suspended_reason": null,
      "source_label": "F1/connected",
      "marker_id": "connected-overall-right",
      "side": "right",
      "connection_group": "$overall",
      "marker_type_index": null
    }
  ]
}
