
     RDKit          2D

  0  0  0  0  0  0  0  0  0  0999 V3000
M  V30 BEGIN CTAB
M  V30 COUNTS 30 29 6 0 0
M  V30 BEGIN ATOM
M  V30 1 H -8.400620 0.077290 0.000000 0
M  V30 2 C 5.455545 0.077244 0.000000 0
M  V30 3 C 5.455545 1.077244 0.000000 0
M  V30 4 C 6.321549 -0.422857 0.000000 0
M  V30 5 C 7.187545 0.077244 0.000000 0
M  V30 6 C -5.802750 -0.422756 0.000000 0
M  V30 7 C -5.802750 -1.422681 0.000000 0
M  V30 8 C -6.668690 0.077256 0.000000 0
M  V30 9 O -6.668692 1.077256 0.000000 0
M  V30 10 O -7.534621 -0.422756 0.000000 0
M  V30 11 C -4.936734 0.077260 0.000000 0
M  V30 12 C -4.070805 -0.422756 0.000000 0
M  V30 13 C -3.204788 0.077260 0.000000 0
M  V30 14 C -3.204788 1.077284 0.000000 0
M  V30 15 C -2.338735 -0.422756 0.000000 0
M  V30 16 C -1.472719 0.077260 0.000000 0
M  V30 17 C -0.606715 -0.422641 0.000000 0
M  V30 18 C 0.259282 0.077260 0.000000 0
M  V30 19 C 0.259282 1.077260 0.000000 0
M  V30 20 C 1.125286 -0.422641 0.000000 0
M  V30 21 C 1.991369 0.077260 0.000000 0
M  V30 22 C 2.857365 -0.422641 0.000000 0
M  V30 23 C 2.857365 -1.422572 0.000000 0
M  V30 24 C 1.991479 -1.922663 0.000000 0
M  V30 25 C 3.723425 -1.922514 0.000000 0
M  V30 26 C 3.723448 0.077260 0.000000 0
M  V30 27 C 4.589453 -0.422641 0.000000 0
M  V30 28 C 4.589453 0.577284 0.000000 0
M  V30 29 C 4.589453 -1.422565 0.000000 0
M  V30 30 C 3.723560 -1.922659 0.000000 0
M  V30 END ATOM
M  V30 BEGIN BOND
M  V30 1 1 2 3
M  V30 2 1 2 4
M  V30 3 1 4 5
M  V30 4 1 6 7
M  V30 5 1 6 8
M  V30 6 2 8 9
M  V30 7 1 8 10
M  V30 8 1 1 10
M  V30 9 1 11 12
M  V30 10 2 12 13
M  V30 11 1 13 14
M  V30 12 1 13 15
M  V30 13 1 16 17
M  V30 14 2 17 18
M  V30 15 1 18 19
M  V30 16 1 18 20
M  V30 17 1 15 16
M  V30 18 1 21 22
M  V30 19 1 22 23
M  V30 20 1 23 24
M  V30 21 2 23 25
M  V30 22 1 20 21
M  V30 23 1 26 27
M  V30 24 1 27 28
M  V30 25 1 27 29
M  V30 26 2 29 30
M  V30 27 1 22 26
M  V30 28 1 6 11
M  V30 29 1 2 27
M  V30 END BOND
M  V30 BEGIN SGROUP
M  V30 1 SRU 0 ATOMS=(4 6 11 15 16) CBONDS=(2 17 28) -
M  V30 BRKXYZ=(9 -5.3697 -0.6728 0 -5.3697 0.3273 0 0 0 0) BRKXYZ=(9 -1.9057 --
M  V30 0.6728 0 -1.9057 0.3273 0 0 0 0)
M  V30 2 SRU 0 ATOMS=(4 15 16 20 21) CBONDS=(2 17 22) -
M  V30 BRKXYZ=(9 -1.9057 -0.6728 0 -1.9057 0.3273 0 0 0 0) BRKXYZ=(9 1.5583 -0-
M  V30 .6727 0 1.5583 0.3273 0 0 0 0)
M  V30 3 SRU 0 ATOMS=(4 20 21 22 26) CBONDS=(2 22 27) -
M  V30 BRKXYZ=(9 1.5583 0.3273 0 1.5583 -0.6727 0 0 0 0) BRKXYZ=(9 3.2904 0.32-
M  V30 73 0 3.2904 -0.6727 0 0 0 0)
M  V30 4 SRU 0 ATOMS=(4 2 22 26 27) CBONDS=(2 27 29) -
M  V30 BRKXYZ=(9 3.2904 0.3273 0 3.2904 -0.6727 0 0 0 0) BRKXYZ=(9 5.0225 0.32-
M  V30 73 0 5.0225 -0.6727 0 0 0 0)
M  V30 5 SRU 0 ATOMS=(4 2 6 11 27) CBONDS=(2 28 29) -
M  V30 BRKXYZ=(9 -5.3697 -3.1727 0 -5.3697 2.8272 0 0 0 0) BRKXYZ=(9 5.0225 -3-
M  V30 .1726 0 5.0225 2.8272 0 0 0 0)
M  V30 6 SRU 0 ATOMS=(4 1 6 10 11) CBONDS=(2 8 28) -
M  V30 BRKXYZ=(9 -5.3697 0.3273 0 -5.3697 -0.6728 0 0 0 0) BRKXYZ=(9 -7.9676 0-
M  V30 .3273 0 -7.9676 -0.6727 0 0 0 0)
M  V30 END SGROUP
M  V30 END CTAB
M  END
>  <BIGSMILES_BRACKET_RECORDS_JSON>
{
  "records": [
    {
      "id": 0,
      "bracket_kind": "backbone",
      "pairing_id": "F2/fragments[0]",
      "group_id": "$a:2",
      "ru_midpoint": [
        -3.637750554048156,
        -0.1727483722021657
      ],
      "bond_midpoint": [
        -5.369742227825346,
        -0.17274829219964474
      ],
      "orientation_vector": [
        0.0,
        -1.0
      ],
      "half_bracket_size": 0.5000159978427487,
      "bond": [
        5,
        10
      ],
      "fragment": "F2",
      "backbone": true,
      "suspended_anchor_atom": null,
      "suspended_reason": null,
      "source_label": "F2/fragments[0]",
      "marker_id": "0",
      "side": "left",
      "connection_group": "$a",
      "marker_type_index": 2
    },
    {
      "id": 1,
      "bracket_kind": "backbone",
      "pairing_id": "F2/fragments[0]",
      "group_id": "$a:2",
      "ru_midpoint": [
        -3.637750554048156,
        -0.1727483722021657
      ],
      "bond_midpoint": [
        -1.9057270319488433,
        -0.17274837220216568
      ],
      "orientation_vector": [
        0.0,
        -1.0
      ],
      "half_bracket_size": 0.5000159978427487,
      "bond": [
        14,
        15
      ],
      "fragment": "F2",
      "backbone": true,
      "suspended_anchor_atom": null,
      "suspended_reason": null,
      "source_label": "F2/fragments[0]",
      "marker_id": "6",
      "side": "right",
      "connection_group": "$a",
      "marker_type_index": 2
    },
    {
      "id": 2,
      "bracket_kind": "backbone",
      "pairing_id": "F2/fragments[1]",
      "group_id": "$a:2",
      "ru_midpoint": [
        -0.17371648586414512,
        -0.1726904532884726
      ],
      "bond_midpoint": [
        -1.9057270319488433,
        -0.17274837220216568
      ],
      "orientation_vector": [
        0.0,
        -1.0
      ],
      "half_bracket_size": 0.5000159978427487,
      "bond": [
        14,
        15
      ],
      "fragment": "F2",
      "backbone": true,
      "suspended_anchor_atom": null,
      "suspended_reason": null,
      "source_label": "F2/fragments[1]",
      "marker_id": "0",
      "side": "left",
      "connection_group": "$a",
      "marker_type_index": 2
    },
    {
      "id": 3,
      "bracket_kind": "backbone",
      "pairing_id": "F2/fragments[1]",
      "group_id": "$a:2",
      "ru_midpoint": [
        -0.17371648586414512,
        -0.1726904532884726
      ],
      "bond_midpoint": [
        1.5583274959830349,
        -0.17269045328847268
      ],
      "orientation_vector": [
        0.0,
        -1.0
      ],
      "half_bracket_size": 0.5000159978427487,
      "bond": [
        19,
        20
      ],
      "fragment": "F2",
      "backbone": true,
      "suspended_anchor_atom": null,
      "suspended_reason": null,
      "source_label": "F2/fragments[1]",
      "marker_id": "6",
      "side": "right",
      "connection_group": "$a",
      "marker_type_index": 2
    },
    {
      "id": 4,
      "bracket_kind": "backbone",
      "pairing_id": "F2/fragments[2]",
      "group_id": "$a:2",
      "ru_midpoint": [
        2.4243868809872033,
        -0.1726904532884726
      ],
      "bond_midpoint": [
        1.5583274959830349,
        -0.17269045328847268
      ],
      "orientation_vector": [
        0.0,
        1.0
      ],
      "half_bracket_size": 0.5000159978427487,
      "bond": [
        19,
        20
      ],
      "fragment": "F2",
      "backbone": true,
      "suspended_anchor_atom": null,
      "suspended_reason": null,
      "source_label": "F2/fragments[2]",
      "marker_id": "0",
      "side": "left",
      "connection_group": "$a",
      "marker_type_index": 2
    },
    {
      "id": 5,
      "bracket_kind": "backbone",
      "pairing_id": "F2/fragments[2]",
      "group_id": "$a:2",
      "ru_midpoint": [
        2.4243868809872033,
        -0.1726904532884726
      ],
      "bond_midpoint": [
        3.2904067414353477,
        -0.17269045328847257
      ],
      "orientation_vector": [
        0.0,
        1.0
      ],
      "half_bracket_size": 0.5000159978427487,
      "bond": [
        21,
        25
      ],
      "fragment": "F2",
      "backbone": true,
      "suspended_anchor_atom": null,
      "suspended_reason": null,
      "source_label": "F2/fragments[2]",
      "marker_id": "6",
      "side": "right",
      "connection_group": "$a",
      "marker_type_index": 2
    },
    {
      "id": 6,
      "bracket_kind": "backbone",
      "pairing_id": "F2/fragments[3]",
      "group_id": "$a:2",
      "ru_midpoint": [
        4.156481385178905,
        -0.1726904532884726
      ],
      "bond_midpoint": [
        3.2904067414353477,
        -0.17269045328847257
      ],
      "orientation_vector": [
        0.0,
        1.0
      ],
      "half_bracket_size": 0.5000159978427487,
      "bond": [
        21,
        25
      ],
      "fragment": "F2",
      "backbone": true,
      "suspended_anchor_atom": null,
      "suspended_reason": null,
      "source_label": "F2/fragments[3]",
      "marker_id": "0",
      "side": "left",
      "connection_group": "$a",
      "marker_type_index": 2
    },
    {
      "id": 7,
      "bracket_kind": "backbone",
      "pairing_id": "F2/fragments[3]",
      "group_id": "$a:2",
      "ru_midpoint": [
        4.156481385178905,
        -0.1726904532884726
      ],
      "bond_midpoint": [
        5.022498755640418,
        -0.17269845130712988
      ],
      "orientation_vector": [
        0.0,
        1.0
      ],
      "half_bracket_size": 0.5000159978427487,
      "bond": [
        1,
        26
      ],
      "fragment": "F2",
      "backbone": true,
      "suspended_anchor_atom": null,
      "suspended_reason": null,
      "source_label": "F2/fragments[3]",
      "marker_id": "6",
      "side": "right",
      "connection_group": "$a",
      "marker_type_index": 2
    },
    {
      "id": 8,
      "bracket_kind": "backbone",
      "pairing_id": "F2/connected",
      "group_id": "$overall",
      "ru_midpoint": [
        -0.17367650501008658,
        -0.17271527568005524
      ],
      "bond_midpoint": [
        -5.369742227825346,
        -0.17274829219964474
      ],
      "orientation_vector": [
        0.0,
        -1.0
      ],
      "half_bracket_size": 2.9999470747103514,
      "bond": [
        5,
        10
      ],
      "fragment": "F2",
      "backbone": true,
      "suspended_anchor_atom": null,
      "suspended_reason": null,
      "source_label": "F2/connected",
      "marker_id": "connected-overall-left",
      "side": "left",
      "connection_group": "$overall",
      "marker_type_index": null
    },
    {
      "id": 9,
      "bracket_kind": "backbone",
      "pairing_id": "F2/connected",
      "group_id": "$overall",
      "ru_midpoint": [
        -0.17367650501008658,
        -0.17271527568005524
      ],
      "bond_midpoint": [
        5.022498755640418,
        -0.17269845130712988
      ],
      "orientation_vector": [
        0.0,
        -1.0
      ],
      "half_bracket_size": 2.9999470747103514,
      "bond": [
        1,
        26
      ],
      "fragment": "F2",
      "backbone": true,
      "suspended_anchor_atom": null,
      "suspended_reason": null,
      "source_label": "F2/connected",
      "marker_id": "connected-overall-right",
      "side": "right",
      "connection_group": "$overall",
      "marker_type_index": null
    },
    {
      "id": 10,
      "bracket_kind": "backbone",
      "pairing_id": "F1/fragments[0]",
      "group_id": ">1:4",
      "ru_midpoint": [
        -6.668670885826094,
        -0.12274881414714428
      ],
      "bond_midpoint": [
        -5.369742227825346,
        -0.17274829219964474
      ],
      "orientation_vector": [
        0.0,
        1.0
      ],
      "half_bracket_size": 0.5000123282855897,
      "bond": [
        5,
        10
      ],
      "fragment": "F1",
      "backbone": true,
      "suspended_anchor_atom": null,
      "suspended_reason": null,
      "source_label": "F1/fragments[0]",
      "marker_id": "0",
      "side": "left",
      "connection_group": ">1",
      "marker_type_index": 4
    },
    {
      "id": 11,
      "bracket_kind": "backbone",
      "pairing_id": "F1/fragments[0]",
      "group_id": "<1:3",
      "ru_midpoint": [
        -6.668670885826094,
        -0.12274881414714428
      ],
      "bond_midpoint": [
        -7.9676207112081645,
        -0.17273300981429054
      ],
      "orientation_vector": [
        0.0,
        1.0
      ],
      "half_bracket_size": 0.5000123282855897,
      "bond": [
        0,
        9
      ],
      "fragment": "F1",
      "backbone": true,
      "suspended_anchor_atom": null,
      "suspended_reason": null,
      "source_label": "F1/fragments[0]",
      "marker_id": "6",
      "side": "right",
      "connection_group": "<1",
      "marker_type_index": 3
    }
  ]
}
