
     RDKit          2D

  0  0  0  0  0  0  0  0  0  0999 V3000
M  V30 BEGIN CTAB
M  V30 COUNTS 14 13 3 0 0
M  V30 BEGIN ATOM
M  V30 1 C 2.598450 -0.494038 0.000000 0
M  V30 2 C 3.464470 -0.994139 0.000000 0
M  V30 3 Cl 3.464470 -1.993941 0.000000 0
M  V30 4 C 7.794528 -0.494074 0.000000 0
M  V30 5 C 8.660512 -0.994175 0.000000 0
M  V30 6 Cl 8.660512 0.005871 0.000000 0
M  V30 7 Cl 9.526250 -0.494074 0.000000 0
M  V30 8 C 4.330445 -0.494051 0.000000 0
M  V30 9 C 5.196449 -0.994151 0.000000 0
M  V30 10 Cl 5.196449 0.005881 0.000000 0
M  V30 11 Cl 5.196449 -1.994076 0.000000 0
M  V30 12 C 6.062417 -0.494051 0.000000 0
M  V30 13 C 6.928474 -0.994024 0.000000 0
M  V30 14 Cl 6.928474 -1.994026 0.000000 0
M  V30 END ATOM
M  V30 BEGIN BOND
M  V30 1 1 1 2
M  V30 2 1 2 3
M  V30 3 1 4 5
M  V30 4 1 5 6
M  V30 5 1 5 7
M  V30 6 1 8 9
M  V30 7 1 9 10
M  V30 8 1 9 11
M  V30 9 1 12 13
M  V30 10 1 13 14
M  V30 11 1 9 12
M  V30 12 1 2 8
M  V30 13 1 4 13
M  V30 END BOND
M  V30 BEGIN SGROUP
M  V30 1 SRU 0 ATOMS=(4 2 8 9 12) CBONDS=(2 11 12) -
M  V30 BRKXYZ=(9 3.8975 -0.2440 0 3.8975 -1.2442 0 0 0 0) BRKXYZ=(9 5.6294 -0.-
M  V30 2440 0 5.6294 -1.2442 0 0 0 0)
M  V30 2 SRU 0 ATOMS=(4 4 9 12 13) CBONDS=(2 11 13) -
M  V30 BRKXYZ=(9 5.6294 -0.2440 0 5.6294 -1.2442 0 0 0 0) BRKXYZ=(9 7.3615 -0.-
M  V30 2439 0 7.3615 -1.2441 0 0 0 0)
M  V30 3 SRU 0 ATOMS=(4 2 4 8 13) CBONDS=(2 12 13) -
M  V30 BRKXYZ=(9 3.8975 1.2559 0 3.8975 -2.7441 0 0 0 0) BRKXYZ=(9 7.3615 1.25-
M  V30 59 0 7.3615 -2.7440 0 0 0 0)
M  V30 END SGROUP
M  V30 END CTAB
M  END
>  <BIGSMILES_BRACKET_RECORDS_JSON>
{
  "records": [
    {
      "id": 0,
      "bracket_kind": "backbone",
      "pairing_id": "F1/fragments[0]",
      "group_id": "<1:3",
      "ru_midpoint": [
        4.76344689826024,
        -0.7441009994649712
      ],
      "bond_midpoint": [
        3.8974572926866378,
        -0.7440948334580787
      ],
      "orientation_vector": [
        0.0,
        1.0
      ],
      "half_bracket_size": 0.5001001599500249,
      "bond": [
        1,
        7
      ],
      "fragment": "F1",
      "backbone": true,
      "suspended_anchor_atom": null,
      "suspended_reason": null,
      "source_label": "F1/fragments[0]",
      "marker_id": "0",
      "side": "left",
      "connection_group": "<1",
      "marker_type_index": 3
    },
    {
      "id": 1,
      "bracket_kind": "backbone",
      "pairing_id": "F1/fragments[0]",
      "group_id": ">1:4",
      "ru_midpoint": [
        4.76344689826024,
        -0.7441009994649712
      ],
      "bond_midpoint": [
        5.629432942995717,
        -0.7441009994649713
      ],
      "orientation_vector": [
        0.0,
        1.0
      ],
      "half_bracket_size": 0.5001001599500249,
      "bond": [
        8,
        11
      ],
      "fragment": "F1",
      "backbone": true,
      "suspended_anchor_atom": null,
      "suspended_reason": null,
      "source_label": "F1/fragments[0]",
      "marker_id": "5",
      "side": "right",
      "connection_group": ">1",
      "marker_type_index": 4
    },
    {
      "id": 2,
      "bracket_kind": "backbone",
      "pairing_id": "F1/fragments[1]",
      "group_id": "<1:3",
      "ru_midpoint": [
        6.495457995614494,
        -0.7440374491025754
      ],
      "bond_midpoint": [
        5.629432942995717,
        -0.7441009994649713
      ],
      "orientation_vector": [
        0.0,
        1.0
      ],
      "half_bracket_size": 0.5001001599500249,
      "bond": [
        8,
        11
      ],
      "fragment": "F1",
      "backbone": true,
      "suspended_anchor_atom": null,
      "suspended_reason": null,
      "source_label": "F1/fragments[1]",
      "marker_id": "0",
      "side": "left",
      "connection_group": "<1",
      "marker_type_index": 3
    },
    {
      "id": 3,
      "bracket_kind": "backbone",
      "pairing_id": "F1/fragments[1]",
      "group_id": ">1:4",
      "ru_midpoint": [
        6.495457995614494,
        -0.7440374491025754
      ],
      "bond_midpoint": [
        7.361501073786392,
        -0.7440488927000751
      ],
      "orientation_vector": [
        0.0,
        1.0
      ],
      "half_bracket_size": 0.5001001599500249,
      "bond": [
        3,
        12
      ],
      "fragment": "F1",
      "backbone": true,
      "suspended_anchor_atom": null,
      "suspended_reason": null,
      "source_label": "F1/fragments[1]",
      "marker_id": "4",
      "side": "right",
      "connection_group": ">1",
      "marker_type_index": 4
    },
    {
      "id": 4,
      "bracket_kind": "backbone",
      "pairing_id": "F1/connected",
      "group_id": "$overall",
      "ru_midpoint": [
        5.629466818552888,
        -0.7440798160108393
      ],
      "bond_midpoint": [
        3.8974572926866378,
        -0.7440948334580787
      ],
      "orientation_vector": [
        0.0,
        1.0
      ],
      "half_bracket_size": 1.9999567966602836,
      "bond": [
        1,
        7
      ],
      "fragment": "F1",
      "backbone": true,
      "suspended_anchor_atom": null,
      "suspended_reason": null,
      "source_label": "F1/connected",
      "marker_id": "connected-overall-left",
      "side": "left",
      "connection_group": "$overall",
      "marker_type_index": null
    },
    {
      "id": 5,
      "bracket_kind": "backbone",
      "pairing_id": "F1/connected",
      "group_id": "$overall",
      "ru_midpoint": [
        5.629466818552888,
        -0.7440798160108393
      ],
      "bond_midpoint": [
        7.361501073786392,
        -0.7440488927000751
      ],
      "orientation_vector": [
        0.0,
        1.0
      ],
      "half_bracket_size": 1.9999567966602836,
      "bond": [
        3,
        12
      ],
      "fragment": "F1",
      "backbone": true,
      "suspended_anchor_atom": null,
      "suspended_reason": null,
      "source_label": "F1/connected",
      "marker_id": "connected-overall-right",
      "side": "right",
      "connection_group": "$overall",
      "marker_type_index": null
    }
  ]
}
