
     RDKit          2D

  0  0  0  0  0  0  0  0  0  0999 V3000
M  V30 BEGIN CTAB
M  V30 COUNTS 44 45 8 0 0
M  V30 BEGIN ATOM
M  V30 1 C 2.760316 -0.326537 0.000000 0
M  V30 2 C 3.626312 0.173563 0.000000 0
M  V30 3 C 4.492317 -0.326537 0.000000 0
M  V30 4 C 4.492317 -1.326537 0.000000 0
M  V30 5 H 21.812289 -0.326477 0.000000 0
M  V30 6 C 5.358339 0.173469 0.000000 0
M  V30 7 C 6.224298 -0.326538 0.000000 0
M  V30 8 C 6.224298 -1.326540 0.000000 0
M  V30 9 C 5.358096 -1.826473 0.000000 0
M  V30 10 C 5.358296 -2.826475 0.000000 0
M  V30 11 C 6.224098 -3.326544 0.000000 0
M  V30 12 C 7.090300 -2.826611 0.000000 0
M  V30 13 C 7.090100 -1.826609 0.000000 0
M  V30 14 C 7.090314 0.173478 0.000000 0
M  V30 15 C 7.956243 -0.326538 0.000000 0
M  V30 16 C 8.822260 0.173478 0.000000 0
M  V30 17 C 8.822260 1.173502 0.000000 0
M  V30 18 C 9.688313 -0.326538 0.000000 0
M  V30 19 C 10.554329 0.173478 0.000000 0
M  V30 20 C 11.420334 -0.326422 0.000000 0
M  V30 21 C 12.286330 0.173478 0.000000 0
M  V30 22 C 12.286330 1.173478 0.000000 0
M  V30 23 C 13.152334 -0.326422 0.000000 0
M  V30 24 C 14.018417 0.173478 0.000000 0
M  V30 25 C 14.884413 -0.326422 0.000000 0
M  V30 26 C 14.884413 -1.326354 0.000000 0
M  V30 27 C 14.018527 -1.826445 0.000000 0
M  V30 28 C 15.750473 -1.826296 0.000000 0
M  V30 29 C 15.750496 0.173478 0.000000 0
M  V30 30 C 16.616501 -0.326422 0.000000 0
M  V30 31 C 16.616501 0.673502 0.000000 0
M  V30 32 C 16.616501 -1.326347 0.000000 0
M  V30 33 C 15.750608 -1.826441 0.000000 0
M  V30 34 C 17.482523 0.173584 0.000000 0
M  V30 35 C 18.348482 -0.326423 0.000000 0
M  V30 36 C 18.348482 -1.326425 0.000000 0
M  V30 37 C 17.482280 -1.826359 0.000000 0
M  V30 38 C 17.482480 -2.826360 0.000000 0
M  V30 39 C 18.348282 -3.326430 0.000000 0
M  V30 40 C 19.214484 -2.826496 0.000000 0
M  V30 41 C 19.214284 -1.826495 0.000000 0
M  V30 42 C 19.214459 0.173661 0.000000 0
M  V30 43 C 20.080455 -0.326439 0.000000 0
M  V30 44 O 20.946344 0.173661 0.000000 0
M  V30 END ATOM
M  V30 BEGIN BOND
M  V30 1 1 1 2
M  V30 2 1 2 3
M  V30 3 1 3 4
M  V30 4 1 6 7
M  V30 5 1 7 8
M  V30 6 2 8 9
M  V30 7 1 9 10
M  V30 8 2 10 11
M  V30 9 1 11 12
M  V30 10 2 12 13
M  V30 11 1 13 8
M  V30 12 1 3 6
M  V30 13 1 14 15
M  V30 14 2 15 16
M  V30 15 1 16 17
M  V30 16 1 16 18
M  V30 17 1 19 20
M  V30 18 2 20 21
M  V30 19 1 21 22
M  V30 20 1 21 23
M  V30 21 1 18 19
M  V30 22 1 24 25
M  V30 23 1 25 26
M  V30 24 1 26 27
M  V30 25 2 26 28
M  V30 26 1 23 24
M  V30 27 1 29 30
M  V30 28 1 30 31
M  V30 29 1 30 32
M  V30 30 2 32 33
M  V30 31 1 25 29
M  V30 32 1 7 14
M  V30 33 1 34 35
M  V30 34 1 35 36
M  V30 35 2 36 37
M  V30 36 1 37 38
M  V30 37 2 38 39
M  V30 38 1 39 40
M  V30 39 2 40 41
M  V30 40 1 41 36
M  V30 41 1 30 34
M  V30 42 1 42 43
M  V30 43 1 43 44
M  V30 44 1 35 42
M  V30 45 1 5 44
M  V30 END BOND
M  V30 BEGIN SGROUP
M  V30 1 SRU 0 ATOMS=(4 5 35 42 44) CBONDS=(2 44 45) -
M  V30 BRKXYZ=(9 18.7815 -0.5765 0 18.7815 0.4237 0 0 0 0) BRKXYZ=(9 21.3793 --
M  V30 0.5765 0 21.3793 0.4237 0 0 0 0)
M  V30 2 SRU 0 ATOMS=(4 30 34 35 42) CBONDS=(2 41 44) -
M  V30 BRKXYZ=(9 17.0495 0.4236 0 17.0495 -0.5764 0 0 0 0) BRKXYZ=(9 18.7815 0-
M  V30 .4236 0 18.7815 -0.5764 0 0 0 0)
M  V30 3 SRU 0 ATOMS=(4 7 14 18 19) CBONDS=(2 21 32) -
M  V30 BRKXYZ=(9 6.6573 -0.5765 0 6.6573 0.4235 0 0 0 0) BRKXYZ=(9 10.1213 -0.-
M  V30 5765 0 10.1213 0.4235 0 0 0 0)
M  V30 4 SRU 0 ATOMS=(4 18 19 23 24) CBONDS=(2 21 26) -
M  V30 BRKXYZ=(9 10.1213 -0.5765 0 10.1213 0.4235 0 0 0 0) BRKXYZ=(9 13.5854 --
M  V30 0.5765 0 13.5854 0.4235 0 0 0 0)
M  V30 5 SRU 0 ATOMS=(4 23 24 25 29) CBONDS=(2 26 31) -
M  V30 BRKXYZ=(9 13.5854 0.4235 0 13.5854 -0.5765 0 0 0 0) BRKXYZ=(9 15.3175 0-
M  V30 .4235 0 15.3175 -0.5765 0 0 0 0)
M  V30 6 SRU 0 ATOMS=(4 25 29 30 34) CBONDS=(2 31 41) -
M  V30 BRKXYZ=(9 15.3175 0.4235 0 15.3175 -0.5765 0 0 0 0) BRKXYZ=(9 17.0495 0-
M  V30 .4236 0 17.0495 -0.5764 0 0 0 0)
M  V30 7 SRU 0 ATOMS=(4 7 14 30 34) CBONDS=(2 32 41) -
M  V30 BRKXYZ=(9 6.6573 -3.0765 0 6.6573 2.9234 0 0 0 0) BRKXYZ=(9 17.0495 -3.-
M  V30 0764 0 17.0495 2.9235 0 0 0 0)
M  V30 8 SRU 0 ATOMS=(4 3 6 7 14) CBONDS=(2 12 32) -
M  V30 BRKXYZ=(9 4.9253 0.4235 0 4.9253 -0.5765 0 0 0 0) BRKXYZ=(9 6.6573 0.42-
M  V30 35 0 6.6573 -0.5765 0 0 0 0)
M  V30 END SGROUP
M  V30 END CTAB
M  END
>  <BIGSMILES_BRACKET_RECORDS_JSON>
{
  "records": [
    {
      "id": 0,
      "bracket_kind": "backbone",
      "pairing_id": "F4/fragments[0]",
      "group_id": "<1:3",
      "ru_midpoint": [
        20.080387072327326,
        -0.12639933001260498
      ],
      "bond_midpoint": [
        18.781470248042382,
        -0.07638131279909968
      ],
      "orientation_vector": [
        0.0,
        -1.0
      ],
      "half_bracket_size": 0.5001001599500253,
      "bond": [
        34,
        41
      ],
      "fragment": "F4",
      "backbone": true,
      "suspended_anchor_atom": null,
      "suspended_reason": null,
      "source_label": "F4/fragments[0]",
      "marker_id": "0",
      "side": "left",
      "connection_group": "<1",
      "marker_type_index": 3
    },
    {
      "id": 1,
      "bracket_kind": "backbone",
      "pairing_id": "F4/fragments[0]",
      "group_id": ">1:4",
      "ru_midpoint": [
        20.080387072327326,
        -0.12639933001260498
      ],
      "bond_midpoint": [
        21.37931649993989,
        -0.07640811990494745
      ],
      "orientation_vector": [
        0.0,
        -1.0
      ],
      "half_bracket_size": 0.5001001599500253,
      "bond": [
        4,
        43
      ],
      "fragment": "F4",
      "backbone": true,
      "suspended_anchor_atom": null,
      "suspended_reason": null,
      "source_label": "F4/fragments[0]",
      "marker_id": "4",
      "side": "right",
      "connection_group": ">1",
      "marker_type_index": 4
    },
    {
      "id": 2,
      "bracket_kind": "backbone",
      "pairing_id": "F3/fragments[0]",
      "group_id": "$a:2",
      "ru_midpoint": [
        17.915476819342388,
        -0.07641986210099302
      ],
      "bond_midpoint": [
        17.049511779742723,
        -0.07641936209543465
      ],
      "orientation_vector": [
        0.0,
        1.0
      ],
      "half_bracket_size": 0.5000070589092322,
      "bond": [
        29,
        33
      ],
      "fragment": "F3",
      "backbone": true,
      "suspended_anchor_atom": null,
      "suspended_reason": null,
      "source_label": "F3/fragments[0]",
      "marker_id": "0",
      "side": "left",
      "connection_group": "$a",
      "marker_type_index": 2
    },
    {
      "id": 3,
      "bracket_kind": "backbone",
      "pairing_id": "F3/fragments[0]",
      "group_id": "$a:2",
      "ru_midpoint": [
        17.915476819342388,
        -0.07641986210099302
      ],
      "bond_midpoint": [
        18.781470248042382,
        -0.07638131279909968
      ],
      "orientation_vector": [
        0.0,
        1.0
      ],
      "half_bracket_size": 0.5000070589092322,
      "bond": [
        34,
        41
      ],
      "fragment": "F3",
      "backbone": true,
      "suspended_anchor_atom": null,
      "suspended_reason": null,
      "source_label": "F3/fragments[0]",
      "marker_id": "9",
      "side": "right",
      "connection_group": "$a",
      "marker_type_index": 2
    },
    {
      "id": 4,
      "bracket_kind": "backbone",
      "pairing_id": "F2/fragments[0]",
      "group_id": "$a:2",
      "ru_midpoint": [
        8.389297652936552,
        -0.07653023045050397
      ],
      "bond_midpoint": [
        6.657305979159362,
        -0.07653015044798306
      ],
      "orientation_vector": [
        0.0,
        -1.0
      ],
      "half_bracket_size": 0.5000159978427487,
      "bond": [
        6,
        13
      ],
      "fragment": "F2",
      "backbone": true,
      "suspended_anchor_atom": null,
      "suspended_reason": null,
      "source_label": "F2/fragments[0]",
      "marker_id": "0",
      "side": "left",
      "connection_group": "$a",
      "marker_type_index": 2
    },
    {
      "id": 5,
      "bracket_kind": "backbone",
      "pairing_id": "F2/fragments[0]",
      "group_id": "$a:2",
      "ru_midpoint": [
        8.389297652936552,
        -0.07653023045050397
      ],
      "bond_midpoint": [
        10.121321175035863,
        -0.076530230450504
      ],
      "orientation_vector": [
        0.0,
        -1.0
      ],
      "half_bracket_size": 0.5000159978427487,
      "bond": [
        17,
        18
      ],
      "fragment": "F2",
      "backbone": true,
      "suspended_anchor_atom": null,
      "suspended_reason": null,
      "source_label": "F2/fragments[0]",
      "marker_id": "6",
      "side": "right",
      "connection_group": "$a",
      "marker_type_index": 2
    },
    {
      "id": 6,
      "bracket_kind": "backbone",
      "pairing_id": "F2/fragments[1]",
      "group_id": "$a:2",
      "ru_midpoint": [
        11.853331721120561,
        -0.07647231153681086
      ],
      "bond_midpoint": [
        10.121321175035863,
        -0.076530230450504
      ],
      "orientation_vector": [
        0.0,
        -1.0
      ],
      "half_bracket_size": 0.5000159978427487,
      "bond": [
        17,
        18
      ],
      "fragment": "F2",
      "backbone": true,
      "suspended_anchor_atom": null,
      "suspended_reason": null,
      "source_label": "F2/fragments[1]",
      "marker_id": "0",
      "side": "left",
      "connection_group": "$a",
      "marker_type_index": 2
    },
    {
      "id": 7,
      "bracket_kind": "backbone",
      "pairing_id": "F2/fragments[1]",
      "group_id": "$a:2",
      "ru_midpoint": [
        11.853331721120561,
        -0.07647231153681086
      ],
      "bond_midpoint": [
        13.585375702967742,
        -0.07647231153681111
      ],
      "orientation_vector": [
        0.0,
        -1.0
      ],
      "half_bracket_size": 0.5000159978427487,
      "bond": [
        22,
        23
      ],
      "fragment": "F2",
      "backbone": true,
      "suspended_anchor_atom": null,
      "suspended_reason": null,
      "source_label": "F2/fragments[1]",
      "marker_id": "6",
      "side": "right",
      "connection_group": "$a",
      "marker_type_index": 2
    },
    {
      "id": 8,
      "bracket_kind": "backbone",
      "pairing_id": "F2/fragments[2]",
      "group_id": "$a:2",
      "ru_midpoint": [
        14.45143508797191,
        -0.07647231153681086
      ],
      "bond_midpoint": [
        13.585375702967742,
        -0.07647231153681111
      ],
      "orientation_vector": [
        0.0,
        1.0
      ],
      "half_bracket_size": 0.5000159978427487,
      "bond": [
        22,
        23
      ],
      "fragment": "F2",
      "backbone": true,
      "suspended_anchor_atom": null,
      "suspended_reason": null,
      "source_label": "F2/fragments[2]",
      "marker_id": "0",
      "side": "left",
      "connection_group": "$a",
      "marker_type_index": 2
    },
    {
      "id": 9,
      "bracket_kind": "backbone",
      "pairing_id": "F2/fragments[2]",
      "group_id": "$a:2",
      "ru_midpoint": [
        14.45143508797191,
        -0.07647231153681086
      ],
      "bond_midpoint": [
        15.317454948420055,
        -0.07647231153681089
      ],
      "orientation_vector": [
        0.0,
        1.0
      ],
      "half_bracket_size": 0.5000159978427487,
      "bond": [
        24,
        28
      ],
      "fragment": "F2",
      "backbone": true,
      "suspended_anchor_atom": null,
      "suspended_reason": null,
      "source_label": "F2/fragments[2]",
      "marker_id": "6",
      "side": "right",
      "connection_group": "$a",
      "marker_type_index": 2
    },
    {
      "id": 10,
      "bracket_kind": "backbone",
      "pairing_id": "F2/fragments[3]",
      "group_id": "$a:2",
      "ru_midpoint": [
        16.183529592163612,
        -0.07647231153681086
      ],
      "bond_midpoint": [
        15.317454948420055,
        -0.07647231153681089
      ],
      "orientation_vector": [
        0.0,
        1.0
      ],
      "half_bracket_size": 0.5000159978427487,
      "bond": [
        24,
        28
      ],
      "fragment": "F2",
      "backbone": true,
      "suspended_anchor_atom": null,
      "suspended_reason": null,
      "source_label": "F2/fragments[3]",
      "marker_id": "0",
      "side": "left",
      "connection_group": "$a",
      "marker_type_index": 2
    },
    {
      "id": 11,
      "bracket_kind": "backbone",
      "pairing_id": "F2/fragments[3]",
      "group_id": "$a:2",
      "ru_midpoint": [
        16.183529592163612,
        -0.07647231153681086
      ],
      "bond_midpoint": [
        17.049511779742723,
        -0.07641936209543465
      ],
      "orientation_vector": [
        0.0,
        1.0
      ],
      "half_bracket_size": 0.5000159978427487,
      "bond": [
        29,
        33
      ],
      "fragment": "F2",
      "backbone": true,
      "suspended_anchor_atom": null,
      "suspended_reason": null,
      "source_label": "F2/fragments[3]",
      "marker_id": "6",
      "side": "right",
      "connection_group": "$a",
      "marker_type_index": 2
    },
    {
      "id": 12,
      "bracket_kind": "backbone",
      "pairing_id": "F2/connected",
      "group_id": "$overall",
      "ru_midpoint": [
        11.85337170197462,
        -0.0764971339283935
      ],
      "bond_midpoint": [
        6.657305979159362,
        -0.07653015044798306
      ],
      "orientation_vector": [
        0.0,
        -1.0
      ],
      "half_bracket_size": 2.9999470747103514,
      "bond": [
        6,
        13
      ],
      "fragment": "F2",
      "backbone": true,
      "suspended_anchor_atom": null,
      "suspended_reason": null,
      "source_label": "F2/connected",
      "marker_id": "connected-overall-left",
      "side": "left",
      "connection_group": "$overall",
      "marker_type_index": null
    },
    {
      "id": 13,
      "bracket_kind": "backbone",
      "pairing_id": "F2/connected",
      "group_id": "$overall",
      "ru_midpoint": [
        11.85337170197462,
        -0.0764971339283935
      ],
      "bond_midpoint": [
        17.049511779742723,
        -0.07641936209543465
      ],
      "orientation_vector": [
        0.0,
        -1.0
      ],
      "half_bracket_size": 2.9999470747103514,
      "bond": [
        29,
        33
      ],
      "fragment": "F2",
      "backbone": true,
      "suspended_anchor_atom": null,
      "suspended_reason": null,
      "source_label": "F2/connected",
      "marker_id": "connected-overall-right",
      "side": "right",
      "connection_group": "$overall",
      "marker_type_index": null
    },
    {
      "id": 14,
      "bracket_kind": "backbone",
      "pairing_id": "F1/fragments[0]",
      "group_id": "$a:2",
      "ru_midpoint": [
        5.791292825638244,
        -0.07653453991222034
      ],
      "bond_midpoint": [
        4.925327786038584,
        -0.07653403990666141
      ],
      "orientation_vector": [
        0.0,
        1.0
      ],
      "half_bracket_size": 0.5000070589092322,
      "bond": [
        2,
        5
      ],
      "fragment": "F1",
      "backbone": true,
      "suspended_anchor_atom": null,
      "suspended_reason": null,
      "source_label": "F1/fragments[0]",
      "marker_id": "0",
      "side": "left",
      "connection_group": "$a",
      "marker_type_index": 2
    },
    {
      "id": 15,
      "bracket_kind": "backbone",
      "pairing_id": "F1/fragments[0]",
      "group_id": "$a:2",
      "ru_midpoint": [
        5.791292825638244,
        -0.07653453991222034
      ],
      "bond_midpoint": [
        6.657305979159362,
        -0.07653015044798306
      ],
      "orientation_vector": [
        0.0,
        1.0
      ],
      "half_bracket_size": 0.5000070589092322,
      "bond": [
        6,
        13
      ],
      "fragment": "F1",
      "backbone": true,
      "suspended_anchor_atom": null,
      "suspended_reason": null,
      "source_label": "F1/fragments[0]",
      "marker_id": "9",
      "side": "right",
      "connection_group": "$a",
      "marker_type_index": 2
    }
  ]
}
