
     RDKit          2D

  0  0  0  0  0  0  0  0  0  0999 V3000
M  V30 BEGIN CTAB
M  V30 COUNTS 19 21 1 0 0
M  V30 BEGIN ATOM
M  V30 1 H -1.299117 -0.448500 0.000000 0
M  V30 2 H 1.298171 0.051300 0.000000 0
M  V30 3 C -0.433355 0.051300 0.000000 0
M  V30 4 C 0.432408 -0.448500 0.000000 0
M  V30 5 C 0.432408 0.551519 0.000000 0
M  V30 6 C 0.432408 -1.447823 0.000000 0
M  V30 7 O 1.298126 -1.947960 0.000000 0
M  V30 8 O -0.432317 -1.946890 0.000000 0
M  V30 9 C -0.431569 -2.945722 0.000000 0
M  V30 10 C -1.297259 -3.444460 0.000000 0
M  V30 11 C -2.052333 -2.790017 0.000000 0
M  V30 12 C -2.989873 -3.332837 0.000000 0
M  V30 13 C -2.799302 -4.314229 0.000000 0
M  V30 14 C -3.357564 -4.162832 0.000000 0
M  V30 15 C -2.598383 -4.818965 0.000000 0
M  V30 16 C -1.652971 -4.274934 0.000000 0
M  V30 17 C -2.408386 -5.800948 0.000000 0
M  V30 18 C -2.046431 -4.960916 0.000000 0
M  V30 19 C -1.112127 -4.419686 0.000000 0
M  V30 END ATOM
M  V30 BEGIN BOND
M  V30 1 1 3 4
M  V30 2 1 4 5
M  V30 3 1 4 6
M  V30 4 2 6 7
M  V30 5 1 6 8
M  V30 6 1 8 9
M  V30 7 1 9 10
M  V30 8 1 10 11
M  V30 9 1 11 12
M  V30 10 1 12 13
M  V30 11 1 12 14
M  V30 12 1 14 15
M  V30 13 1 15 16
M  V30 14 1 15 17
M  V30 15 1 17 18
M  V30 16 1 18 19
M  V30 17 1 16 10
M  V30 18 1 19 10
M  V30 19 1 18 13
M  V30 20 1 1 3
M  V30 21 1 2 4
M  V30 END BOND
M  V30 BEGIN SGROUP
M  V30 1 SRU 0 ATOMS=(4 1 2 3 4) CBONDS=(2 20 21) -
M  V30 BRKXYZ=(9 -0.8662 0.3012 0 -0.8662 -0.6984 0 0 0 0) BRKXYZ=(9 0.8653 0.-
M  V30 3012 0 0.8653 -0.6984 0 0 0 0)
M  V30 END SGROUP
M  V30 END CTAB
M  END
>  <BIGSMILES_BRACKET_RECORDS_JSON>
{
  "records": [
    {
      "id": 0,
      "bracket_kind": "backbone",
      "pairing_id": "F1/fragments[0]",
      "group_id": "$a:2",
      "ru_midpoint": [
        -0.00040466310468567634,
        -0.19848150928849445
      ],
      "bond_midpoint": [
        -0.8662359252254652,
        -0.1986
      ],
      "orientation_vector": [
        0.0,
        1.0
      ],
      "half_bracket_size": 0.49980099887090135,
      "bond": [
        0,
        2
      ],
      "fragment": "F1",
      "backbone": true,
      "suspended_anchor_atom": null,
      "suspended_reason": null,
      "source_label": "F1/fragments[0]",
      "marker_id": "0",
      "side": "left",
      "connection_group": "$a",
      "marker_type_index": 2
    },
    {
      "id": 1,
      "bracket_kind": "backbone",
      "pairing_id": "F1/fragments[0]",
      "group_id": "$a:2",
      "ru_midpoint": [
        -0.00040466310468567634,
        -0.19848150928849445
      ],
      "bond_midpoint": [
        0.8652896466649982,
        -0.1986
      ],
      "orientation_vector": [
        0.0,
        1.0
      ],
      "half_bracket_size": 0.49980099887090135,
      "bond": [
        1,
        3
      ],
      "fragment": "F1",
      "backbone": true,
      "suspended_anchor_atom": null,
      "suspended_reason": null,
      "source_label": "F1/fragments[0]",
      "marker_id": "18",
      "side": "right",
      "connection_group": "$a",
      "marker_type_index": 2
    }
  ]
}
