
     RDKit          2D

  0  0  0  0  0  0  0  0  0  0999 V3000
M  V30 BEGIN CTAB
M  V30 COUNTS 28 29 4 0 0
M  V30 BEGIN ATOM
M  V30 1 H -2.165225 -0.448570 0.000000 0
M  V30 2 H 2.164849 0.051404 0.000000 0
M  V30 3 C -1.299167 0.051404 0.000000 0
M  V30 4 C -0.433110 -0.448570 0.000000 0
M  V30 5 C -0.433110 -1.448570 0.000000 0
M  V30 6 C 0.432924 -1.948575 0.000000 0
M  V30 7 C 0.432924 -2.948585 0.000000 0
M  V30 8 C -1.299144 -1.948575 0.000000 0
M  V30 9 C -1.299144 -2.948585 0.000000 0
M  V30 10 C -0.433110 -3.448590 0.000000 0
M  V30 11 C -0.433110 -4.448590 0.000000 0
M  V30 12 C 0.066990 -5.314594 0.000000 0
M  V30 13 C -0.433110 -6.180590 0.000000 0
M  V30 14 C 0.066990 -7.046595 0.000000 0
M  V30 15 C 0.066936 -10.510864 0.000000 0
M  V30 16 O 1.066937 -10.510866 0.000000 0
M  V30 17 O -0.433164 -11.376745 0.000000 0
M  V30 18 O -0.432948 -7.912656 0.000000 0
M  V30 19 C 0.066952 -8.778660 0.000000 0
M  V30 20 C -0.432948 -9.644772 0.000000 0
M  V30 21 C 0.432931 0.051404 0.000000 0
M  V30 22 C 1.298890 -0.448604 0.000000 0
M  V30 23 C 1.298890 -1.448606 0.000000 0
M  V30 24 C 0.432688 -1.948539 0.000000 0
M  V30 25 C 0.432888 -2.948541 0.000000 0
M  V30 26 C 1.298690 -3.448610 0.000000 0
M  V30 27 C 2.164892 -2.948677 0.000000 0
M  V30 28 C 2.164692 -1.948675 0.000000 0
M  V30 END ATOM
M  V30 BEGIN BOND
M  V30 1 1 3 4
M  V30 2 2 5 6
M  V30 3 1 6 7
M  V30 4 1 5 8
M  V30 5 2 8 9
M  V30 6 1 9 10
M  V30 7 1 10 11
M  V30 8 1 11 12
M  V30 9 1 12 13
M  V30 10 1 13 14
M  V30 11 2 15 16
M  V30 12 1 15 17
M  V30 13 2 10 7
M  V30 14 1 18 19
M  V30 15 1 19 20
M  V30 16 1 14 18
M  V30 17 1 15 20
M  V30 18 1 4 5
M  V30 19 1 21 22
M  V30 20 1 22 23
M  V30 21 2 23 24
M  V30 22 1 24 25
M  V30 23 2 25 26
M  V30 24 1 26 27
M  V30 25 2 27 28
M  V30 26 1 28 23
M  V30 27 1 4 21
M  V30 28 1 1 3
M  V30 29 1 2 22
M  V30 END BOND
M  V30 BEGIN SGROUP
M  V30 1 SRU 0 ATOMS=(4 14 15 18 20) CBONDS=(2 16 17) -
M  V30 BRKXYZ=(9 0.3169 -7.4796 0 -0.6829 -7.4796 0 0 0 0) BRKXYZ=(9 0.3169 -1-
M  V30 0.0778 0 -0.6829 -10.0778 0 0 0 0)
M  V30 2 SRU 0 ATOMS=(4 1 3 4 21) CBONDS=(2 27 28) -
M  V30 BRKXYZ=(9 -1.7322 0.3014 0 -1.7322 -0.6986 0 0 0 0) BRKXYZ=(9 -0.0001 0-
M  V30 .3014 0 -0.0001 -0.6986 0 0 0 0)
M  V30 3 SRU 0 ATOMS=(4 2 4 21 22) CBONDS=(2 27 29) -
M  V30 BRKXYZ=(9 -0.0001 0.3014 0 -0.0001 -0.6986 0 0 0 0) BRKXYZ=(9 1.7319 0.-
M  V30 3014 0 1.7319 -0.6986 0 0 0 0)
M  V30 4 SRU 0 ATOMS=(4 1 2 3 22) CBONDS=(2 28 29) -
M  V30 BRKXYZ=(9 -1.7322 11.2296 0 -1.7322 -11.6267 0 0 0 0) BRKXYZ=(9 1.7319 -
M  V30 11.2295 0 1.7319 -11.6267 0 0 0 0)
M  V30 END SGROUP
M  V30 END CTAB
M  END
>  <BIGSMILES_BRACKET_RECORDS_JSON>
{
  "records": [
    {
      "id": 0,
      "bracket_kind": "backbone",
      "pairing_id": "F3/fragments[0]",
      "group_id": "<1:3",
      "ru_midpoint": [
        -0.13300758673419955,
        -8.778728057350179
      ],
      "bond_midpoint": [
        -0.18297880436923708,
        -7.479625413030055
      ],
      "orientation_vector": [
        1.0,
        0.0
      ],
      "half_bracket_size": 0.49990016001536197,
      "bond": [
        13,
        17
      ],
      "fragment": "F3",
      "backbone": true,
      "suspended_anchor_atom": null,
      "suspended_reason": null,
      "source_label": "F3/fragments[0]",
      "marker_id": "0",
      "side": "left",
      "connection_group": "<1",
      "marker_type_index": 3
    },
    {
      "id": 1,
      "bracket_kind": "backbone",
      "pairing_id": "F3/fragments[0]",
      "group_id": ">1:4",
      "ru_midpoint": [
        -0.13300758673419955,
        -8.778728057350179
      ],
      "bond_midpoint": [
        -0.18300560075439365,
        -10.077818087644392
      ],
      "orientation_vector": [
        1.0,
        0.0
      ],
      "half_bracket_size": 0.49990016001536197,
      "bond": [
        14,
        19
      ],
      "fragment": "F3",
      "backbone": true,
      "suspended_anchor_atom": null,
      "suspended_reason": null,
      "source_label": "F3/fragments[0]",
      "marker_id": "4",
      "side": "right",
      "connection_group": ">1",
      "marker_type_index": 4
    },
    {
      "id": 2,
      "bracket_kind": "backbone",
      "pairing_id": "F1-0/subMolblock",
      "group_id": "$a:2",
      "ru_midpoint": [
        -0.8661339424095538,
        -0.1985835001295602
      ],
      "bond_midpoint": [
        -1.732195978066985,
        -0.19858300015800068
      ],
      "orientation_vector": [
        0.0,
        1.0
      ],
      "half_bracket_size": 0.4999730592252327,
      "bond": [
        0,
        2
      ],
      "fragment": "F1-0",
      "backbone": true,
      "suspended_anchor_atom": null,
      "suspended_reason": null,
      "source_label": "F1-0/subMolblock",
      "marker_id": "0",
      "side": "left",
      "connection_group": "$a",
      "marker_type_index": 2
    },
    {
      "id": 3,
      "bracket_kind": "backbone",
      "pairing_id": "F1-0/subMolblock",
      "group_id": "$a:2",
      "ru_midpoint": [
        -0.8661339424095538,
        -0.1985835001295602
      ],
      "bond_midpoint": [
        -8.960720043660331e-05,
        -0.19858300015800068
      ],
      "orientation_vector": [
        0.0,
        1.0
      ],
      "half_bracket_size": 0.4999730592252327,
      "bond": [
        3,
        20
      ],
      "fragment": "F1-0",
      "backbone": true,
      "suspended_anchor_atom": null,
      "suspended_reason": null,
      "source_label": "F1-0/subMolblock",
      "marker_id": "4",
      "side": "right",
      "connection_group": "$a",
      "marker_type_index": 2
    },
    {
      "id": 4,
      "bracket_kind": "backbone",
      "pairing_id": "F1/fragments[1]",
      "group_id": "$a:2",
      "ru_midpoint": [
        0.8658662969429667,
        -0.1986215580924579
      ],
      "bond_midpoint": [
        -8.960720043660331e-05,
        -0.19858300015800068
      ],
      "orientation_vector": [
        0.0,
        1.0
      ],
      "half_bracket_size": 0.5000070589092322,
      "bond": [
        3,
        20
      ],
      "fragment": "F1",
      "backbone": true,
      "suspended_anchor_atom": null,
      "suspended_reason": null,
      "source_label": "F1/fragments[1]",
      "marker_id": "0",
      "side": "left",
      "connection_group": "$a",
      "marker_type_index": 2
    },
    {
      "id": 5,
      "bracket_kind": "backbone",
      "pairing_id": "F1/fragments[1]",
      "group_id": "$a:2",
      "ru_midpoint": [
        0.8658662969429667,
        -0.1986215580924579
      ],
      "bond_midpoint": [
        1.731869537279473,
        -0.19860000000000022
      ],
      "orientation_vector": [
        0.0,
        1.0
      ],
      "half_bracket_size": 0.5000070589092322,
      "bond": [
        1,
        21
      ],
      "fragment": "F1",
      "backbone": true,
      "suspended_anchor_atom": null,
      "suspended_reason": null,
      "source_label": "F1/fragments[1]",
      "marker_id": "9",
      "side": "right",
      "connection_group": "$a",
      "marker_type_index": 2
    },
    {
      "id": 6,
      "bracket_kind": "backbone",
      "pairing_id": "F1/connected",
      "group_id": "$overall",
      "ru_midpoint": [
        -0.09995482272018452,
        -4.326333470005761
      ],
      "bond_midpoint": [
        -1.732195978066985,
        -0.19858300015800068
      ],
      "orientation_vector": [
        0.0,
        1.0
      ],
      "half_bracket_size": 11.428148477859072,
      "bond": [
        0,
        2
      ],
      "fragment": "F1",
      "backbone": true,
      "suspended_anchor_atom": null,
      "suspended_reason": null,
      "source_label": "F1/connected",
      "marker_id": "connected-overall-left",
      "side": "left",
      "connection_group": "$overall",
      "marker_type_index": null
    },
    {
      "id": 7,
      "bracket_kind": "backbone",
      "pairing_id": "F1/connected",
      "group_id": "$overall",
      "ru_midpoint": [
        -0.09995482272018452,
        -4.326333470005761
      ],
      "bond_midpoint": [
        1.731869537279473,
        -0.19860000000000022
      ],
      "orientation_vector": [
        0.0,
        1.0
      ],
      "half_bracket_size": 11.428148477859072,
      "bond": [
        1,
        21
      ],
      "fragment": "F1",
      "backbone": true,
      "suspended_anchor_atom": null,
      "suspended_reason": null,
      "source_label": "F1/connected",
      "marker_id": "connected-overall-right",
      "side": "right",
      "connection_group": "$overall",
      "marker_type_index": null
    }
  ]
}
