
     RDKit          2D

  0  0  0  0  0  0  0  0  0  0999 V3000
M  V30 BEGIN CTAB
M  V30 COUNTS 51 54 3 0 0
M  V30 BEGIN ATOM
M  V30 1 O -10.853452 0.461637 0.000000 0
M  V30 2 C -9.987247 0.961737 0.000000 0
M  V30 3 C -9.121251 0.461637 0.000000 0
M  V30 4 C -8.255247 0.961737 0.000000 0
M  V30 5 C -7.389251 0.461637 0.000000 0
M  V30 6 C -6.523362 0.961737 0.000000 0
M  V30 7 C -5.657481 0.461637 0.000000 0
M  V30 8 O -5.657433 -0.538363 0.000000 0
M  V30 9 O 1.270421 0.461603 0.000000 0
M  V30 10 C 2.136310 0.961703 0.000000 0
M  V30 11 C 3.002049 0.461207 0.000000 0
M  V30 12 C 3.001475 -0.539169 0.000000 0
M  V30 13 C 3.867539 -1.039853 0.000000 0
M  V30 14 C 3.866966 -2.039778 0.000000 0
M  V30 15 N 3.057352 -2.625705 0.000000 0
M  V30 16 N 3.365984 -3.577345 0.000000 0
M  V30 17 N 4.364183 -3.578610 0.000000 0
M  V30 18 C 4.675351 -2.627852 0.000000 0
M  V30 19 C 4.734177 -0.540162 0.000000 0
M  V30 20 C 4.734750 0.460214 0.000000 0
M  V30 21 C 5.601062 0.959717 0.000000 0
M  V30 22 N 5.910059 0.008721 0.000000 0
M  V30 23 N 6.909996 0.008721 0.000000 0
M  V30 24 N 7.218993 0.959717 0.000000 0
M  V30 25 C 6.410028 1.547465 0.000000 0
M  V30 26 C 3.868686 0.960898 0.000000 0
M  V30 27 O -4.791510 0.961731 0.000000 0
M  V30 28 C -3.925490 0.461630 0.000000 0
M  V30 29 C -3.059506 0.961731 0.000000 0
M  V30 30 C -2.193286 0.461630 0.000000 0
M  V30 31 C -1.327303 0.961731 0.000000 0
M  V30 32 C -0.461398 0.461630 0.000000 0
M  V30 33 C 0.404470 0.961731 0.000000 0
M  V30 34 C 0.404470 1.961733 0.000000 0
M  V30 35 C 4.952310 -4.388229 0.000000 0
M  V30 36 C 5.818306 -3.888129 0.000000 0
M  V30 37 C 8.416283 -4.388178 0.000000 0
M  V30 38 C 9.282288 -3.888078 0.000000 0
M  V30 39 C 10.148284 -4.388178 0.000000 0
M  V30 40 C 6.684328 -4.388135 0.000000 0
M  V30 41 C 7.550287 -3.888128 0.000000 0
M  V30 42 C 7.550287 -2.888126 0.000000 0
M  V30 43 C 6.684085 -2.388192 0.000000 0
M  V30 44 C 6.684285 -1.388191 0.000000 0
M  V30 45 C 7.550087 -0.888121 0.000000 0
M  V30 46 C 8.416288 -1.388055 0.000000 0
M  V30 47 C 8.416088 -2.388056 0.000000 0
M  V30 48 C 10.767881 0.768596 0.000000 0
M  V30 49 C 8.170050 1.268734 0.000000 0
M  V30 50 C 9.036046 0.768634 0.000000 0
M  V30 51 O 9.901935 1.268734 0.000000 0
M  V30 END ATOM
M  V30 BEGIN BOND
M  V30 1 1 1 2
M  V30 2 1 2 3
M  V30 3 1 3 4
M  V30 4 1 4 5
M  V30 5 1 5 6
M  V30 6 1 6 7
M  V30 7 2 7 8
M  V30 8 1 9 10
M  V30 9 1 10 11
M  V30 10 2 11 12
M  V30 11 1 12 13
M  V30 12 1 13 14
M  V30 13 1 14 15
M  V30 14 2 15 16
M  V30 15 1 16 17
M  V30 16 1 17 18
M  V30 17 2 13 19
M  V30 18 1 19 20
M  V30 19 1 20 21
M  V30 20 1 21 22
M  V30 21 2 22 23
M  V30 22 1 23 24
M  V30 23 1 24 25
M  V30 24 2 20 26
M  V30 25 1 26 11
M  V30 26 2 18 14
M  V30 27 2 25 21
M  V30 28 1 27 28
M  V30 29 1 28 29
M  V30 30 1 29 30
M  V30 31 1 30 31
M  V30 32 1 31 32
M  V30 33 1 32 33
M  V30 34 2 33 34
M  V30 35 1 7 27
M  V30 36 1 9 33
M  V30 37 1 35 36
M  V30 38 1 37 38
M  V30 39 1 38 39
M  V30 40 1 40 41
M  V30 41 1 41 42
M  V30 42 2 42 43
M  V30 43 1 43 44
M  V30 44 2 44 45
M  V30 45 1 45 46
M  V30 46 2 46 47
M  V30 47 1 47 42
M  V30 48 1 36 40
M  V30 49 1 37 41
M  V30 50 1 17 35
M  V30 51 1 49 50
M  V30 52 1 50 51
M  V30 53 1 48 51
M  V30 54 1 24 49
M  V30 END BOND
M  V30 BEGIN SGROUP
M  V30 1 SRU 0 ATOMS=(4 24 48 49 51) CBONDS=(2 53 54) -
M  V30 BRKXYZ=(9 7.6945 0.6141 0 7.6945 1.6143 0 0 0 0) BRKXYZ=(9 10.3349 0.51-
M  V30 86 0 10.3349 1.5188 0 0 0 0)
M  V30 2 SRU 0 ATOMS=(4 36 37 40 41) CBONDS=(2 48 49) -
M  V30 BRKXYZ=(9 6.2513 -4.6381 0 6.2513 -3.6381 0 0 0 0) BRKXYZ=(9 7.9833 -4.-
M  V30 6382 0 7.9833 -3.6381 0 0 0 0)
M  V30 3 SRU 0 ATOMS=(4 7 9 27 33) CBONDS=(2 35 36) -
M  V30 BRKXYZ=(9 -5.2245 0.2116 0 -5.2245 1.2118 0 0 0 0) BRKXYZ=(9 0.8374 0.2-
M  V30 116 0 0.8374 1.2118 0 0 0 0)
M  V30 END SGROUP
M  V30 END CTAB
M  END
>  <BIGSMILES_BRACKET_RECORDS_JSON>
{
  "records": [
    {
      "id": 0,
      "bracket_kind": "backbone",
      "pairing_id": "F5/fragments[0]",
      "group_id": "<1:3",
      "ru_midpoint": [
        9.035978305063262,
        0.9686740229431183
      ],
      "bond_midpoint": [
        7.694521627615355,
        1.114225621725659
      ],
      "orientation_vector": [
        0.0,
        -1.0
      ],
      "half_bracket_size": 0.5001001599500253,
      "bond": [
        23,
        48
      ],
      "fragment": "F5",
      "backbone": true,
      "suspended_anchor_atom": null,
      "suspended_reason": null,
      "source_label": "F5/fragments[0]",
      "marker_id": "0",
      "side": "left",
      "connection_group": "<1",
      "marker_type_index": 3
    },
    {
      "id": 1,
      "bracket_kind": "backbone",
      "pairing_id": "F5/fragments[0]",
      "group_id": ">1:4",
      "ru_midpoint": [
        9.035978305063262,
        0.9686740229431183
      ],
      "bond_midpoint": [
        10.334907732675823,
        1.018665233050776
      ],
      "orientation_vector": [
        0.0,
        -1.0
      ],
      "half_bracket_size": 0.5001001599500253,
      "bond": [
        47,
        50
      ],
      "fragment": "F5",
      "backbone": true,
      "suspended_anchor_atom": null,
      "suspended_reason": null,
      "source_label": "F5/fragments[0]",
      "marker_id": "4",
      "side": "right",
      "connection_group": ">1",
      "marker_type_index": 4
    },
    {
      "id": 2,
      "bracket_kind": "backbone",
      "pairing_id": "F4/fragments[0]",
      "group_id": "$a:2",
      "ru_midpoint": [
        7.117281592265848,
        -4.138131385445065
      ],
      "bond_midpoint": [
        6.251316552666188,
        -4.1381318854506235
      ],
      "orientation_vector": [
        0.0,
        -1.0
      ],
      "half_bracket_size": 0.5000070589092322,
      "bond": [
        35,
        39
      ],
      "fragment": "F4",
      "backbone": true,
      "suspended_anchor_atom": null,
      "suspended_reason": null,
      "source_label": "F4/fragments[0]",
      "marker_id": "0",
      "side": "left",
      "connection_group": "$a",
      "marker_type_index": 2
    },
    {
      "id": 3,
      "bracket_kind": "backbone",
      "pairing_id": "F4/fragments[0]",
      "group_id": "$a:2",
      "ru_midpoint": [
        7.117281592265848,
        -4.138131385445065
      ],
      "bond_midpoint": [
        7.983284832602354,
        -4.138152943537523
      ],
      "orientation_vector": [
        0.0,
        -1.0
      ],
      "half_bracket_size": 0.5000070589092322,
      "bond": [
        36,
        40
      ],
      "fragment": "F4",
      "backbone": true,
      "suspended_anchor_atom": null,
      "suspended_reason": null,
      "source_label": "F4/fragments[0]",
      "marker_id": "9",
      "side": "right",
      "connection_group": "$a",
      "marker_type_index": 2
    },
    {
      "id": 4,
      "bracket_kind": "backbone",
      "pairing_id": "F1/fragments[0]",
      "group_id": "<1:3",
      "ru_midpoint": [
        -2.1934601905259012,
        0.6838969789893963
      ],
      "bond_midpoint": [
        -5.224495269738055,
        0.7116838984868389
      ],
      "orientation_vector": [
        0.0,
        -1.0
      ],
      "half_bracket_size": 0.5001009994649712,
      "bond": [
        6,
        26
      ],
      "fragment": "F1",
      "backbone": true,
      "suspended_anchor_atom": null,
      "suspended_reason": null,
      "source_label": "F1/fragments[0]",
      "marker_id": "0",
      "side": "left",
      "connection_group": "<1",
      "marker_type_index": 3
    },
    {
      "id": 5,
      "bracket_kind": "backbone",
      "pairing_id": "F1/fragments[0]",
      "group_id": ">1:4",
      "ru_midpoint": [
        -2.1934601905259012,
        0.6838969789893963
      ],
      "bond_midpoint": [
        0.8374453475537703,
        0.711666894038673
      ],
      "orientation_vector": [
        0.0,
        -1.0
      ],
      "half_bracket_size": 0.5001009994649712,
      "bond": [
        8,
        32
      ],
      "fragment": "F1",
      "backbone": true,
      "suspended_anchor_atom": null,
      "suspended_reason": null,
      "source_label": "F1/fragments[0]",
      "marker_id": "9",
      "side": "right",
      "connection_group": ">1",
      "marker_type_index": 4
    }
  ]
}
