
     RDKit          2D

  0  0  0  0  0  0  0  0  0  0999 V3000
M  V30 BEGIN CTAB
M  V30 COUNTS 52 52 3 0 0
M  V30 BEGIN ATOM
M  V30 1 C -8.502552 0.656110 0.000000 0
M  V30 2 C -7.636547 1.156211 0.000000 0
M  V30 3 O -7.636545 2.156211 0.000000 0
M  V30 4 O -5.038625 0.656162 0.000000 0
M  V30 5 C -4.172745 1.156262 0.000000 0
M  V30 6 C -3.306856 0.656162 0.000000 0
M  V30 7 C -2.440975 1.156262 0.000000 0
M  V30 8 C -1.574886 0.656162 0.000000 0
M  V30 9 C -0.709005 1.156262 0.000000 0
M  V30 10 C 0.157083 0.656162 0.000000 0
M  V30 11 N 1.108140 0.965179 0.000000 0
M  V30 12 N 1.417146 1.916202 0.000000 0
M  V30 13 N 2.417112 1.916202 0.000000 0
M  V30 14 C 2.726118 0.965179 0.000000 0
M  V30 15 C 1.917129 0.377414 0.000000 0
M  V30 16 C 3.677174 0.656162 0.000000 0
M  V30 17 O 4.543033 1.156088 0.000000 0
M  V30 18 C 5.409091 0.656162 0.000000 0
M  V30 19 C 6.275001 1.156088 0.000000 0
M  V30 20 C 7.141034 0.656162 0.000000 0
M  V30 21 C 8.007080 1.156088 0.000000 0
M  V30 22 N -6.770535 0.656189 0.000000 0
M  V30 23 C -6.770535 -0.343757 0.000000 0
M  V30 24 C -5.904658 -0.843842 0.000000 0
M  V30 25 C -5.904658 -1.843788 0.000000 0
M  V30 26 C -5.038607 -2.343774 0.000000 0
M  V30 27 C -5.038681 -3.343993 0.000000 0
M  V30 28 C -4.172631 -3.843978 0.000000 0
M  V30 29 C -5.904622 1.156212 0.000000 0
M  V30 30 O -5.904631 2.156214 0.000000 0
M  V30 31 C 6.275001 0.156108 0.000000 0
M  V30 32 O 6.775101 -0.709897 0.000000 0
M  V30 33 H 6.775074 -7.638771 0.000000 0
M  V30 34 C 6.275173 -1.575964 0.000000 0
M  V30 35 O 5.275171 -1.575973 0.000000 0
M  V30 36 C 6.775074 -2.441947 0.000000 0
M  V30 37 C 6.275173 -3.307967 0.000000 0
M  V30 38 C 6.775074 -4.174066 0.000000 0
M  V30 39 C 6.275173 -5.040402 0.000000 0
M  V30 40 C 6.775074 -5.906501 0.000000 0
M  V30 41 O 6.275173 -6.772636 0.000000 0
M  V30 42 C 6.275001 2.156079 0.000000 0
M  V30 43 O 5.774900 3.022084 0.000000 0
M  V30 44 H 5.774927 9.950958 0.000000 0
M  V30 45 C 6.274828 3.888151 0.000000 0
M  V30 46 O 7.274830 3.888160 0.000000 0
M  V30 47 C 5.774927 4.754134 0.000000 0
M  V30 48 C 6.274828 5.620154 0.000000 0
M  V30 49 C 5.774927 6.486253 0.000000 0
M  V30 50 C 6.274828 7.352588 0.000000 0
M  V30 51 C 5.774927 8.218687 0.000000 0
M  V30 52 O 6.274828 9.084823 0.000000 0
M  V30 END ATOM
M  V30 BEGIN BOND
M  V30 1 1 1 2
M  V30 2 2 2 3
M  V30 3 1 4 5
M  V30 4 1 5 6
M  V30 5 1 6 7
M  V30 6 1 7 8
M  V30 7 1 8 9
M  V30 8 1 9 10
M  V30 9 1 10 11
M  V30 10 1 11 12
M  V30 11 2 12 13
M  V30 12 1 13 14
M  V30 13 2 14 15
M  V30 14 1 14 16
M  V30 15 1 16 17
M  V30 16 1 17 18
M  V30 17 1 18 19
M  V30 18 1 19 20
M  V30 19 1 20 21
M  V30 20 1 15 11
M  V30 21 1 22 23
M  V30 22 1 23 24
M  V30 23 1 24 25
M  V30 24 1 25 26
M  V30 25 1 26 27
M  V30 26 1 27 28
M  V30 27 1 22 29
M  V30 28 2 29 30
M  V30 29 1 2 22
M  V30 30 1 4 29
M  V30 31 1 31 32
M  V30 32 2 34 35
M  V30 33 1 34 36
M  V30 34 1 36 37
M  V30 35 1 37 38
M  V30 36 1 38 39
M  V30 37 1 39 40
M  V30 38 1 40 41
M  V30 39 1 32 34
M  V30 40 1 33 41
M  V30 41 1 19 31
M  V30 42 1 42 43
M  V30 43 2 45 46
M  V30 44 1 45 47
M  V30 45 1 47 48
M  V30 46 1 48 49
M  V30 47 1 49 50
M  V30 48 1 50 51
M  V30 49 1 51 52
M  V30 50 1 43 45
M  V30 51 1 44 52
M  V30 52 1 19 42
M  V30 END BOND
M  V30 BEGIN SGROUP
M  V30 1 SRU 0 ATOMS=(4 43 44 45 52) CBONDS=(2 50 51) -
M  V30 BRKXYZ=(9 5.5250 3.4551 0 6.5248 3.4551 0 0 0 0) BRKXYZ=(9 5.5250 9.517-
M  V30 9 0 6.5248 9.5179 0 0 0 0)
M  V30 2 SRU 0 ATOMS=(4 32 33 34 41) CBONDS=(2 39 40) -
M  V30 BRKXYZ=(9 7.0250 -1.1429 0 6.0252 -1.1429 0 0 0 0) BRKXYZ=(9 7.0250 -7.-
M  V30 2057 0 6.0252 -7.2057 0 0 0 0)
M  V30 3 SRU 0 ATOMS=(4 2 4 22 29) CBONDS=(2 29 30) -
M  V30 BRKXYZ=(9 -7.2035 1.4062 0 -7.2035 0.4062 0 0 0 0) BRKXYZ=(9 -5.4716 1.-
M  V30 4062 0 -5.4716 0.4062 0 0 0 0)
M  V30 END SGROUP
M  V30 END CTAB
M  END
>  <BIGSMILES_BRACKET_RECORDS_JSON>
{
  "records": [
    {
      "id": 0,
      "bracket_kind": "backbone",
      "pairing_id": "F5/fragments[0]",
      "group_id": "<1:3",
      "ru_midpoint": [
        5.997098531228097,
        6.486475631234303
      ],
      "bond_midpoint": [
        6.0248643990287185,
        3.4551171611976996
      ],
      "orientation_vector": [
        -1.0,
        0.0
      ],
      "half_bracket_size": 0.4999009998503262,
      "bond": [
        42,
        44
      ],
      "fragment": "F5",
      "backbone": true,
      "suspended_anchor_atom": null,
      "suspended_reason": null,
      "source_label": "F5/fragments[0]",
      "marker_id": "0",
      "side": "left",
      "connection_group": "<1",
      "marker_type_index": 3
    },
    {
      "id": 1,
      "bracket_kind": "backbone",
      "pairing_id": "F5/fragments[0]",
      "group_id": ">1:4",
      "ru_midpoint": [
        5.997098531228097,
        6.486475631234303
      ],
      "bond_midpoint": [
        6.024877867450182,
        9.517890442774501
      ],
      "orientation_vector": [
        -1.0,
        0.0
      ],
      "half_bracket_size": 0.4999009998503262,
      "bond": [
        43,
        51
      ],
      "fragment": "F5",
      "backbone": true,
      "suspended_anchor_atom": null,
      "suspended_reason": null,
      "source_label": "F5/fragments[0]",
      "marker_id": "9",
      "side": "right",
      "connection_group": ">1",
      "marker_type_index": 4
    },
    {
      "id": 2,
      "bracket_kind": "backbone",
      "pairing_id": "F4/fragments[0]",
      "group_id": "<1:3",
      "ru_midpoint": [
        6.552899120809823,
        -4.174264584228803
      ],
      "bond_midpoint": [
        6.5251367822355135,
        -1.1429305056942303
      ],
      "orientation_vector": [
        1.0,
        0.0
      ],
      "half_bracket_size": 0.4999009998503262,
      "bond": [
        31,
        33
      ],
      "fragment": "F4",
      "backbone": true,
      "suspended_anchor_atom": null,
      "suspended_reason": null,
      "source_label": "F4/fragments[0]",
      "marker_id": "0",
      "side": "left",
      "connection_group": "<1",
      "marker_type_index": 3
    },
    {
      "id": 3,
      "bracket_kind": "backbone",
      "pairing_id": "F4/fragments[0]",
      "group_id": ">1:4",
      "ru_midpoint": [
        6.552899120809823,
        -4.174264584228803
      ],
      "bond_midpoint": [
        6.525123313814049,
        -7.205703787271032
      ],
      "orientation_vector": [
        1.0,
        0.0
      ],
      "half_bracket_size": 0.4999009998503262,
      "bond": [
        32,
        40
      ],
      "fragment": "F4",
      "backbone": true,
      "suspended_anchor_atom": null,
      "suspended_reason": null,
      "source_label": "F4/fragments[0]",
      "marker_id": "9",
      "side": "right",
      "connection_group": ">1",
      "marker_type_index": 4
    },
    {
      "id": 4,
      "bracket_kind": "backbone",
      "pairing_id": "F1/fragments[0]",
      "group_id": "<1:3",
      "ru_midpoint": [
        -6.337594423647234,
        0.9062001599500249
      ],
      "bond_midpoint": [
        -7.203540987253738,
        0.9061996599286378
      ],
      "orientation_vector": [
        0.0,
        1.0
      ],
      "half_bracket_size": 0.500022886881565,
      "bond": [
        1,
        21
      ],
      "fragment": "F1",
      "backbone": true,
      "suspended_anchor_atom": null,
      "suspended_reason": null,
      "source_label": "F1/fragments[0]",
      "marker_id": "0",
      "side": "left",
      "connection_group": "<1",
      "marker_type_index": 3
    },
    {
      "id": 5,
      "bracket_kind": "backbone",
      "pairing_id": "F1/fragments[0]",
      "group_id": ">1:4",
      "ru_midpoint": [
        -6.337594423647234,
        0.9062001599500249
      ],
      "bond_midpoint": [
        -5.471623663451012,
        0.9061866882446594
      ],
      "orientation_vector": [
        0.0,
        1.0
      ],
      "half_bracket_size": 0.500022886881565,
      "bond": [
        3,
        28
      ],
      "fragment": "F1",
      "backbone": true,
      "suspended_anchor_atom": null,
      "suspended_reason": null,
      "source_label": "F1/fragments[0]",
      "marker_id": "10",
      "side": "right",
      "connection_group": ">1",
      "marker_type_index": 4
    }
  ]
}
