
     RDKit          2D

  0  0  0  0  0  0  0  0  0  0999 V3000
M  V30 BEGIN CTAB
M  V30 COUNTS 61 61 4 0 0
M  V30 BEGIN ATOM
M  V30 1 C -8.190936 0.574910 0.000000 0
M  V30 2 C -7.324932 1.075011 0.000000 0
M  V30 3 O -7.324930 2.075011 0.000000 0
M  V30 4 O -4.727010 0.574962 0.000000 0
M  V30 5 C -3.861014 1.075062 0.000000 0
M  V30 6 C -2.994925 0.574962 0.000000 0
M  V30 7 C -2.129044 1.075062 0.000000 0
M  V30 8 C -1.263155 0.574962 0.000000 0
M  V30 9 C -0.397074 1.075062 0.000000 0
M  V30 10 C 0.469014 0.574962 0.000000 0
M  V30 11 N 1.420071 0.883979 0.000000 0
M  V30 12 N 1.729076 1.834998 0.000000 0
M  V30 13 N 2.729036 1.834998 0.000000 0
M  V30 14 C 3.038041 0.883979 0.000000 0
M  V30 15 C 2.229056 0.296217 0.000000 0
M  V30 16 C 3.989098 0.574962 0.000000 0
M  V30 17 O 4.854980 1.074847 0.000000 0
M  V30 18 C 5.720832 0.574962 0.000000 0
M  V30 19 C 6.586900 1.074847 0.000000 0
M  V30 20 N -6.458919 0.574989 0.000000 0
M  V30 21 C -6.458919 -0.424957 0.000000 0
M  V30 22 C -5.593042 -0.925042 0.000000 0
M  V30 23 C -5.593042 -1.924988 0.000000 0
M  V30 24 C -4.726992 -2.424974 0.000000 0
M  V30 25 C -4.727066 -3.425193 0.000000 0
M  V30 26 C -3.861015 -3.925178 0.000000 0
M  V30 27 C -5.593006 1.075012 0.000000 0
M  V30 28 O -5.593016 2.075014 0.000000 0
M  V30 29 C 6.586900 0.074985 0.000000 0
M  V30 30 O 7.087001 -0.791020 0.000000 0
M  V30 31 H 7.086974 -7.719894 0.000000 0
M  V30 32 C 6.587073 -1.657087 0.000000 0
M  V30 33 O 5.587071 -1.657096 0.000000 0
M  V30 34 C 7.086974 -2.523070 0.000000 0
M  V30 35 C 6.587073 -3.389090 0.000000 0
M  V30 36 C 7.086974 -4.255189 0.000000 0
M  V30 37 C 6.587073 -5.121525 0.000000 0
M  V30 38 C 7.086974 -5.987624 0.000000 0
M  V30 39 O 6.587073 -6.853759 0.000000 0
M  V30 40 C 6.586900 2.074839 0.000000 0
M  V30 41 O 6.086800 2.940843 0.000000 0
M  V30 42 H 6.086827 9.869718 0.000000 0
M  V30 43 C 6.586728 3.806910 0.000000 0
M  V30 44 O 7.586730 3.806919 0.000000 0
M  V30 45 C 6.086827 4.672893 0.000000 0
M  V30 46 C 6.586728 5.538913 0.000000 0
M  V30 47 C 6.086827 6.405012 0.000000 0
M  V30 48 C 6.586728 7.271348 0.000000 0
M  V30 49 C 6.086827 8.137447 0.000000 0
M  V30 50 O 6.586728 9.003582 0.000000 0
M  V30 51 C 7.452982 0.574962 0.000000 0
M  V30 52 O 8.318987 1.075062 0.000000 0
M  V30 53 H 15.247861 1.075035 0.000000 0
M  V30 54 C 9.185054 0.575134 0.000000 0
M  V30 55 O 9.185063 -0.424868 0.000000 0
M  V30 56 C 10.051037 1.075035 0.000000 0
M  V30 57 C 10.917057 0.575134 0.000000 0
M  V30 58 C 11.783156 1.075035 0.000000 0
M  V30 59 C 12.649491 0.575134 0.000000 0
M  V30 60 C 13.515590 1.075035 0.000000 0
M  V30 61 O 14.381726 0.575134 0.000000 0
M  V30 END ATOM
M  V30 BEGIN BOND
M  V30 1 1 1 2
M  V30 2 2 2 3
M  V30 3 1 4 5
M  V30 4 1 5 6
M  V30 5 1 6 7
M  V30 6 1 7 8
M  V30 7 1 8 9
M  V30 8 1 9 10
M  V30 9 1 10 11
M  V30 10 1 11 12
M  V30 11 2 12 13
M  V30 12 1 13 14
M  V30 13 2 14 15
M  V30 14 1 14 16
M  V30 15 1 16 17
M  V30 16 1 17 18
M  V30 17 1 18 19
M  V30 18 1 15 11
M  V30 19 1 20 21
M  V30 20 1 21 22
M  V30 21 1 22 23
M  V30 22 1 23 24
M  V30 23 1 24 25
M  V30 24 1 25 26
M  V30 25 1 20 27
M  V30 26 2 27 28
M  V30 27 1 2 20
M  V30 28 1 4 27
M  V30 29 1 29 30
M  V30 30 2 32 33
M  V30 31 1 32 34
M  V30 32 1 34 35
M  V30 33 1 35 36
M  V30 34 1 36 37
M  V30 35 1 37 38
M  V30 36 1 38 39
M  V30 37 1 30 32
M  V30 38 1 31 39
M  V30 39 1 19 29
M  V30 40 1 40 41
M  V30 41 2 43 44
M  V30 42 1 43 45
M  V30 43 1 45 46
M  V30 44 1 46 47
M  V30 45 1 47 48
M  V30 46 1 48 49
M  V30 47 1 49 50
M  V30 48 1 41 43
M  V30 49 1 42 50
M  V30 50 1 19 40
M  V30 51 1 51 52
M  V30 52 2 54 55
M  V30 53 1 54 56
M  V30 54 1 56 57
M  V30 55 1 57 58
M  V30 56 1 58 59
M  V30 57 1 59 60
M  V30 58 1 60 61
M  V30 59 1 52 54
M  V30 60 1 53 61
M  V30 61 1 19 51
M  V30 END BOND
M  V30 BEGIN SGROUP
M  V30 1 SRU 0 ATOMS=(4 52 53 54 61) CBONDS=(2 59 60) -
M  V30 BRKXYZ=(9 8.7520 1.3250 0 8.7520 0.3252 0 0 0 0) BRKXYZ=(9 14.8148 1.32-
M  V30 50 0 14.8148 0.3252 0 0 0 0)
M  V30 2 SRU 0 ATOMS=(4 41 42 43 50) CBONDS=(2 48 49) -
M  V30 BRKXYZ=(9 5.8369 3.3739 0 6.8367 3.3739 0 0 0 0) BRKXYZ=(9 5.8369 9.436-
M  V30 6 0 6.8367 9.4366 0 0 0 0)
M  V30 3 SRU 0 ATOMS=(4 30 31 32 39) CBONDS=(2 37 38) -
M  V30 BRKXYZ=(9 7.3369 -1.2241 0 6.3371 -1.2241 0 0 0 0) BRKXYZ=(9 7.3369 -7.-
M  V30 2868 0 6.3371 -7.2868 0 0 0 0)
M  V30 4 SRU 0 ATOMS=(4 2 4 20 27) CBONDS=(2 27 28) -
M  V30 BRKXYZ=(9 -6.8919 1.3250 0 -6.8919 0.3250 0 0 0 0) BRKXYZ=(9 -5.1600 1.-
M  V30 3250 0 -5.1600 0.3250 0 0 0 0)
M  V30 END SGROUP
M  V30 END CTAB
M  END
>  <BIGSMILES_BRACKET_RECORDS_JSON>
{
  "records": [
    {
      "id": 0,
      "bracket_kind": "backbone",
      "pairing_id": "F7/fragments[0]",
      "group_id": "<1:3",
      "ru_midpoint": [
        11.783402937954444,
        0.8528673617288425
      ],
      "bond_midpoint": [
        8.75202007641581,
        0.8250979647019112
      ],
      "orientation_vector": [
        0.0,
        1.0
      ],
      "half_bracket_size": 0.4999009998503262,
      "bond": [
        51,
        53
      ],
      "fragment": "F7",
      "backbone": true,
      "suspended_anchor_atom": null,
      "suspended_reason": null,
      "source_label": "F7/fragments[0]",
      "marker_id": "0",
      "side": "left",
      "connection_group": "<1",
      "marker_type_index": 3
    },
    {
      "id": 1,
      "bracket_kind": "backbone",
      "pairing_id": "F7/fragments[0]",
      "group_id": ">1:4",
      "ru_midpoint": [
        11.783402937954444,
        0.8528673617288425
      ],
      "bond_midpoint": [
        14.814793357992613,
        0.8250844962804478
      ],
      "orientation_vector": [
        0.0,
        1.0
      ],
      "half_bracket_size": 0.4999009998503262,
      "bond": [
        52,
        60
      ],
      "fragment": "F7",
      "backbone": true,
      "suspended_anchor_atom": null,
      "suspended_reason": null,
      "source_label": "F7/fragments[0]",
      "marker_id": "9",
      "side": "right",
      "connection_group": ">1",
      "marker_type_index": 4
    },
    {
      "id": 2,
      "bracket_kind": "backbone",
      "pairing_id": "F6/fragments[0]",
      "group_id": "<1:3",
      "ru_midpoint": [
        6.3089984324942145,
        6.405235063307923
      ],
      "bond_midpoint": [
        6.336764300294835,
        3.3738765932713197
      ],
      "orientation_vector": [
        -1.0,
        0.0
      ],
      "half_bracket_size": 0.4999009998503262,
      "bond": [
        40,
        42
      ],
      "fragment": "F6",
      "backbone": true,
      "suspended_anchor_atom": null,
      "suspended_reason": null,
      "source_label": "F6/fragments[0]",
      "marker_id": "0",
      "side": "left",
      "connection_group": "<1",
      "marker_type_index": 3
    },
    {
      "id": 3,
      "bracket_kind": "backbone",
      "pairing_id": "F6/fragments[0]",
      "group_id": ">1:4",
      "ru_midpoint": [
        6.3089984324942145,
        6.405235063307923
      ],
      "bond_midpoint": [
        6.336777768716299,
        9.436649874848122
      ],
      "orientation_vector": [
        -1.0,
        0.0
      ],
      "half_bracket_size": 0.4999009998503262,
      "bond": [
        41,
        49
      ],
      "fragment": "F6",
      "backbone": true,
      "suspended_anchor_atom": null,
      "suspended_reason": null,
      "source_label": "F6/fragments[0]",
      "marker_id": "9",
      "side": "right",
      "connection_group": ">1",
      "marker_type_index": 4
    },
    {
      "id": 4,
      "bracket_kind": "backbone",
      "pairing_id": "F5/fragments[0]",
      "group_id": "<1:3",
      "ru_midpoint": [
        6.86479902207594,
        -4.255387442903845
      ],
      "bond_midpoint": [
        6.837036683501632,
        -1.2240533643692726
      ],
      "orientation_vector": [
        1.0,
        0.0
      ],
      "half_bracket_size": 0.4999009998503262,
      "bond": [
        29,
        31
      ],
      "fragment": "F5",
      "backbone": true,
      "suspended_anchor_atom": null,
      "suspended_reason": null,
      "source_label": "F5/fragments[0]",
      "marker_id": "0",
      "side": "left",
      "connection_group": "<1",
      "marker_type_index": 3
    },
    {
      "id": 5,
      "bracket_kind": "backbone",
      "pairing_id": "F5/fragments[0]",
      "group_id": ">1:4",
      "ru_midpoint": [
        6.86479902207594,
        -4.255387442903845
      ],
      "bond_midpoint": [
        6.8370232150801655,
        -7.286826645946075
      ],
      "orientation_vector": [
        1.0,
        0.0
      ],
      "half_bracket_size": 0.4999009998503262,
      "bond": [
        30,
        38
      ],
      "fragment": "F5",
      "backbone": true,
      "suspended_anchor_atom": null,
      "suspended_reason": null,
      "source_label": "F5/fragments[0]",
      "marker_id": "9",
      "side": "right",
      "connection_group": ">1",
      "marker_type_index": 4
    },
    {
      "id": 6,
      "bracket_kind": "backbone",
      "pairing_id": "F1/fragments[0]",
      "group_id": "<1:3",
      "ru_midpoint": [
        -6.025978781425792,
        0.825000159950025
      ],
      "bond_midpoint": [
        -6.891925345032296,
        0.8249996599286379
      ],
      "orientation_vector": [
        0.0,
        1.0
      ],
      "half_bracket_size": 0.500022886881565,
      "bond": [
        1,
        19
      ],
      "fragment": "F1",
      "backbone": true,
      "suspended_anchor_atom": null,
      "suspended_reason": null,
      "source_label": "F1/fragments[0]",
      "marker_id": "0",
      "side": "left",
      "connection_group": "<1",
      "marker_type_index": 3
    },
    {
      "id": 7,
      "bracket_kind": "backbone",
      "pairing_id": "F1/fragments[0]",
      "group_id": ">1:4",
      "ru_midpoint": [
        -6.025978781425792,
        0.825000159950025
      ],
      "bond_midpoint": [
        -5.16000802122957,
        0.8249866882446595
      ],
      "orientation_vector": [
        0.0,
        1.0
      ],
      "half_bracket_size": 0.500022886881565,
      "bond": [
        3,
        26
      ],
      "fragment": "F1",
      "backbone": true,
      "suspended_anchor_atom": null,
      "suspended_reason": null,
      "source_label": "F1/fragments[0]",
      "marker_id": "10",
      "side": "right",
      "connection_group": ">1",
      "marker_type_index": 4
    }
  ]
}
