
     RDKit          2D

  0  0  0  0  0  0  0  0  0  0999 V3000
M  V30 BEGIN CTAB
M  V30 COUNTS 36 37 2 0 0
M  V30 BEGIN ATOM
M  V30 1 H -10.495018 -0.474373 0.000000 0
M  V30 2 H 10.494602 0.025615 0.000000 0
M  V30 3 N -9.629013 0.025728 0.000000 0
M  V30 4 C -8.763008 -0.474373 0.000000 0
M  V30 5 C -7.897012 0.025728 0.000000 0
M  V30 6 C -7.031008 -0.474373 0.000000 0
M  V30 7 Si -4.432906 0.025615 0.000000 0 VAL=4
M  V30 8 C -4.432906 -0.974310 0.000000 0
M  V30 9 C -4.432906 1.025647 0.000000 0
M  V30 10 C -3.567025 -0.474485 0.000000 0
M  V30 11 C -2.701136 0.025615 0.000000 0
M  V30 12 C -1.835256 -0.474485 0.000000 0
M  V30 13 N -0.969367 0.025615 0.000000 0
M  V30 14 C -0.103486 -0.474485 0.000000 0
M  V30 15 O -0.103488 -1.474485 0.000000 0
M  V30 16 N 0.762403 0.025615 0.000000 0
M  V30 17 C 1.762403 0.025615 0.000000 0
M  V30 18 C 2.262441 0.891707 0.000000 0
M  V30 19 C 3.262518 0.891707 0.000000 0
M  V30 20 C 2.262441 -0.840477 0.000000 0
M  V30 21 C 3.262518 -0.840477 0.000000 0
M  V30 22 C 3.762556 0.025615 0.000000 0
M  V30 23 C 4.762556 0.025615 0.000000 0
M  V30 24 C 5.762556 0.025615 0.000000 0
M  V30 25 C 6.262570 0.891664 0.000000 0
M  V30 26 C 7.262596 0.891664 0.000000 0
M  V30 27 C 6.262570 -0.840434 0.000000 0
M  V30 28 C 7.262596 -0.840434 0.000000 0
M  V30 29 C 7.762610 0.025615 0.000000 0
M  V30 30 N 8.762610 0.025615 0.000000 0
M  V30 31 C 9.628606 -0.474485 0.000000 0
M  V30 32 O 9.628604 -1.474485 0.000000 0
M  V30 33 Si -6.164983 0.025627 0.000000 0 VAL=4
M  V30 34 C -6.164983 -0.974297 0.000000 0
M  V30 35 C -6.164983 1.025652 0.000000 0
M  V30 36 O -5.298929 -0.474389 0.000000 0
M  V30 END ATOM
M  V30 BEGIN BOND
M  V30 1 1 3 4
M  V30 2 1 4 5
M  V30 3 1 5 6
M  V30 4 1 7 8
M  V30 5 1 7 9
M  V30 6 1 7 10
M  V30 7 1 10 11
M  V30 8 1 11 12
M  V30 9 1 12 13
M  V30 10 1 13 14
M  V30 11 2 14 15
M  V30 12 1 14 16
M  V30 13 1 16 17
M  V30 14 1 17 18
M  V30 15 1 18 19
M  V30 16 1 17 20
M  V30 17 1 20 21
M  V30 18 1 21 22
M  V30 19 1 22 23
M  V30 20 1 23 24
M  V30 21 1 24 25
M  V30 22 1 25 26
M  V30 23 1 24 27
M  V30 24 1 27 28
M  V30 25 1 28 29
M  V30 26 1 29 30
M  V30 27 1 30 31
M  V30 28 2 31 32
M  V30 29 1 22 19
M  V30 30 1 29 26
M  V30 31 1 33 34
M  V30 32 1 33 35
M  V30 33 1 33 36
M  V30 34 1 6 33
M  V30 35 1 7 36
M  V30 36 1 1 3
M  V30 37 1 2 31
M  V30 END BOND
M  V30 BEGIN SGROUP
M  V30 1 SRU 0 ATOMS=(4 6 7 33 36) CBONDS=(2 34 35) -
M  V30 BRKXYZ=(9 -6.5980 -0.7244 0 -6.5980 0.2756 0 0 0 0) BRKXYZ=(9 -4.8659 --
M  V30 0.7244 0 -4.8659 0.2756 0 0 0 0)
M  V30 2 SRU 0 ATOMS=(4 1 2 3 31) CBONDS=(2 36 37) -
M  V30 BRKXYZ=(9 -10.0620 -1.9565 0 -10.0620 1.5079 0 0 0 0) BRKXYZ=(9 10.0616-
M  V30  -1.9566 0 10.0616 1.5077 0 0 0 0)
M  V30 END SGROUP
M  V30 END CTAB
M  END
>  <BIGSMILES_BRACKET_RECORDS_JSON>
{
  "records": [
    {
      "id": 0,
      "bracket_kind": "backbone",
      "pairing_id": "F2/fragments[0]",
      "group_id": "<1:3",
      "ru_midpoint": [
        -5.7319580618513974,
        -0.22438065173561916
      ],
      "bond_midpoint": [
        -6.5979952030025455,
        -0.22437265186361494
      ],
      "orientation_vector": [
        0.0,
        -1.0
      ],
      "half_bracket_size": 0.5000159997440081,
      "bond": [
        5,
        32
      ],
      "fragment": "F2",
      "backbone": true,
      "suspended_anchor_atom": null,
      "suspended_reason": null,
      "source_label": "F2/fragments[0]",
      "marker_id": "0",
      "side": "left",
      "connection_group": "<1",
      "marker_type_index": 3
    },
    {
      "id": 1,
      "bracket_kind": "backbone",
      "pairing_id": "F2/fragments[0]",
      "group_id": ">1:4",
      "ru_midpoint": [
        -5.7319580618513974,
        -0.22438065173561916
      ],
      "bond_midpoint": [
        -4.865917742450929,
        -0.22438681670485455
      ],
      "orientation_vector": [
        0.0,
        -1.0
      ],
      "half_bracket_size": 0.5000159997440081,
      "bond": [
        6,
        35
      ],
      "fragment": "F2",
      "backbone": true,
      "suspended_anchor_atom": null,
      "suspended_reason": null,
      "source_label": "F2/fragments[0]",
      "marker_id": "5",
      "side": "right",
      "connection_group": ">1",
      "marker_type_index": 4
    },
    {
      "id": 2,
      "bracket_kind": "backbone",
      "pairing_id": "F1/mergedFragments[0]/subMolblock/native-outer",
      "group_id": "$overall",
      "ru_midpoint": [
        0.7980663137308197,
        -0.16361459184251254
      ],
      "bond_midpoint": [
        -10.062015251890218,
        -0.22432257188860255
      ],
      "orientation_vector": [
        0.0,
        -1.0
      ],
      "half_bracket_size": 1.7321837090972974,
      "bond": [
        0,
        2
      ],
      "fragment": "F1",
      "backbone": true,
      "suspended_anchor_atom": null,
      "suspended_reason": null,
      "source_label": "F1/mergedFragments[0]/subMolblock",
      "marker_id": "native-outer-left",
      "side": "left",
      "connection_group": "$overall",
      "marker_type_index": null
    },
    {
      "id": 3,
      "bracket_kind": "backbone",
      "pairing_id": "F1/mergedFragments[0]/subMolblock/native-outer",
      "group_id": "$overall",
      "ru_midpoint": [
        0.7980663137308197,
        -0.16361459184251254
      ],
      "bond_midpoint": [
        10.061603669908028,
        -0.22443506177708794
      ],
      "orientation_vector": [
        0.0,
        -1.0
      ],
      "half_bracket_size": 1.7321837090972974,
      "bond": [
        1,
        30
      ],
      "fragment": "F1",
      "backbone": true,
      "suspended_anchor_atom": null,
      "suspended_reason": null,
      "source_label": "F1/mergedFragments[0]/subMolblock",
      "marker_id": "native-outer-right",
      "side": "right",
      "connection_group": "$overall",
      "marker_type_index": null
    }
  ]
}
