
     RDKit          2D

  0  0  0  0  0  0  0  0  0  0999 V3000
M  V30 BEGIN CTAB
M  V30 COUNTS 253 252 12 0 0
M  V30 BEGIN ATOM
M  V30 1 C 1.367999 1.464318 0.000000 0
M  V30 2 C 0.502000 0.964334 0.000000 0
M  V30 3 O -6.425924 0.964287 0.000000 0
M  V30 4 C -7.291813 1.464388 0.000000 0
M  V30 5 O -7.291815 2.464388 0.000000 0
M  V30 6 C -8.157694 0.964287 0.000000 0
M  V30 7 C -8.157694 1.964212 0.000000 0
M  V30 8 C -8.157694 -0.035745 0.000000 0
M  V30 9 Br -12.487887 1.464300 0.000000 0
M  V30 10 O -0.363975 1.464422 0.000000 0
M  V30 11 C -1.229979 0.964321 0.000000 0
M  V30 12 O -1.229981 -0.035679 0.000000 0
M  V30 13 C -2.095975 1.464422 0.000000 0
M  V30 14 C -2.961980 0.964321 0.000000 0
M  V30 15 C -3.827976 1.464422 0.000000 0
M  V30 16 C -4.693980 0.964321 0.000000 0
M  V30 17 C -5.559976 1.464422 0.000000 0
M  V30 18 C -9.023755 1.464225 0.000000 0
M  V30 19 C -9.889760 0.964325 0.000000 0
M  V30 20 C -9.889760 1.964257 0.000000 0
M  V30 21 C -9.889760 -0.035600 0.000000 0
M  V30 22 O -9.023694 -0.535531 0.000000 0
M  V30 23 O -10.755652 -0.535694 0.000000 0
M  V30 24 C -10.755652 -1.535619 0.000000 0
M  V30 25 C -11.621545 -2.035713 0.000000 0
M  V30 26 O -11.621371 -3.035737 0.000000 0
M  V30 27 C -12.487437 -3.535731 0.000000 0
M  V30 28 C -12.487264 -4.535756 0.000000 0
M  V30 29 O -13.353329 -5.035750 0.000000 0
M  V30 30 C -13.353156 -6.035775 0.000000 0
M  V30 31 C -14.219222 -6.535769 0.000000 0
M  V30 32 O -14.219049 -7.535793 0.000000 0
M  V30 33 C -15.085114 -8.035787 0.000000 0
M  V30 34 C -15.084941 -9.035812 0.000000 0
M  V30 35 O -15.950834 -9.535906 0.000000 0
M  V30 36 C -15.950834 -10.535831 0.000000 0
M  V30 37 C -16.816726 -11.035925 0.000000 0
M  V30 38 O -16.816726 -12.035850 0.000000 0
M  V30 39 C -17.682619 -12.535943 0.000000 0
M  V30 40 C -17.682619 -13.535868 0.000000 0
M  V30 41 O -18.548511 -14.035962 0.000000 0
M  V30 42 C -18.548511 -15.035887 0.000000 0
M  V30 43 C -19.414404 -15.535981 0.000000 0
M  V30 44 O -19.414230 -16.536006 0.000000 0
M  V30 45 C -20.280296 -17.036000 0.000000 0
M  V30 46 C -20.280123 -18.036024 0.000000 0
M  V30 47 O -21.146188 -18.536018 0.000000 0
M  V30 48 C -21.146015 -19.536043 0.000000 0
M  V30 49 C -22.012081 -20.036037 0.000000 0
M  V30 50 O -22.011908 -21.036062 0.000000 0
M  V30 51 C -22.877973 -21.536056 0.000000 0
M  V30 52 C -10.755821 1.464263 0.000000 0
M  V30 53 C -11.621825 0.964363 0.000000 0
M  V30 54 C -11.621825 1.964395 0.000000 0
M  V30 55 C -11.621825 -0.035562 0.000000 0
M  V30 56 O -10.755759 -0.535493 0.000000 0
M  V30 57 O -12.487718 -0.535656 0.000000 0
M  V30 58 C -12.487544 -1.535681 0.000000 0
M  V30 59 C -13.353610 -2.035675 0.000000 0
M  V30 60 O -13.353437 -3.035700 0.000000 0
M  V30 61 C -14.219503 -3.535694 0.000000 0
M  V30 62 C -14.219329 -4.535718 0.000000 0
M  V30 63 O -15.085395 -5.035712 0.000000 0
M  V30 64 C -15.085222 -6.035737 0.000000 0
M  V30 65 C 1.367999 0.464318 0.000000 0
M  V30 66 O 1.368045 -6.463606 0.000000 0
M  V30 67 C 0.867945 -7.329495 0.000000 0
M  V30 68 O -0.132055 -7.329497 0.000000 0
M  V30 69 C 1.368045 -8.195375 0.000000 0
M  V30 70 C 0.368121 -8.195375 0.000000 0
M  V30 71 C 2.368077 -8.195375 0.000000 0
M  V30 72 Br 0.868032 -12.525568 0.000000 0
M  V30 73 O 0.867911 -0.401656 0.000000 0
M  V30 74 C 1.368011 -1.267661 0.000000 0
M  V30 75 O 2.368012 -1.267663 0.000000 0
M  V30 76 C 0.867911 -2.133657 0.000000 0
M  V30 77 C 1.368011 -2.999661 0.000000 0
M  V30 78 C 0.867911 -3.865657 0.000000 0
M  V30 79 C 1.368011 -4.731662 0.000000 0
M  V30 80 C 0.867911 -5.597658 0.000000 0
M  V30 81 C 0.868108 -9.061437 0.000000 0
M  V30 82 C 1.368008 -9.927441 0.000000 0
M  V30 83 C 0.368076 -9.927441 0.000000 0
M  V30 84 C 2.367933 -9.927441 0.000000 0
M  V30 85 O 2.867863 -9.061375 0.000000 0
M  V30 86 O 2.868026 -10.793334 0.000000 0
M  V30 87 C 3.867951 -10.793334 0.000000 0
M  V30 88 C 4.368045 -11.659226 0.000000 0
M  V30 89 O 5.368070 -11.659053 0.000000 0
M  V30 90 C 5.868064 -12.525119 0.000000 0
M  V30 91 C 6.868089 -12.524945 0.000000 0
M  V30 92 O 7.368083 -13.391011 0.000000 0
M  V30 93 C 8.368107 -13.390838 0.000000 0
M  V30 94 C 8.868101 -14.256903 0.000000 0
M  V30 95 O 9.868126 -14.256730 0.000000 0
M  V30 96 C 10.368120 -15.122796 0.000000 0
M  V30 97 C 11.368145 -15.122623 0.000000 0
M  V30 98 O 11.868239 -15.988515 0.000000 0
M  V30 99 C 12.868163 -15.988515 0.000000 0
M  V30 100 C 13.368257 -16.854408 0.000000 0
M  V30 101 O 14.368182 -16.854408 0.000000 0
M  V30 102 C 14.868276 -17.720300 0.000000 0
M  V30 103 C 15.868201 -17.720300 0.000000 0
M  V30 104 O 16.368295 -18.586193 0.000000 0
M  V30 105 C 17.368220 -18.586193 0.000000 0
M  V30 106 C 17.868314 -19.452085 0.000000 0
M  V30 107 O 18.868338 -19.451912 0.000000 0
M  V30 108 C 19.368332 -20.317978 0.000000 0
M  V30 109 C 20.368357 -20.317804 0.000000 0
M  V30 110 O 20.868351 -21.183870 0.000000 0
M  V30 111 C 21.868376 -21.183697 0.000000 0
M  V30 112 C 22.368370 -22.049762 0.000000 0
M  V30 113 O 23.368394 -22.049589 0.000000 0
M  V30 114 C 23.868389 -22.915655 0.000000 0
M  V30 115 C 0.868070 -10.793502 0.000000 0
M  V30 116 C 1.367970 -11.659507 0.000000 0
M  V30 117 C 0.367938 -11.659507 0.000000 0
M  V30 118 C 2.367895 -11.659507 0.000000 0
M  V30 119 O 2.867826 -10.793441 0.000000 0
M  V30 120 O 2.867989 -12.525399 0.000000 0
M  V30 121 C 3.868014 -12.525226 0.000000 0
M  V30 122 C 4.368008 -13.391292 0.000000 0
M  V30 123 O 5.368032 -13.391118 0.000000 0
M  V30 124 C 5.868026 -14.257184 0.000000 0
M  V30 125 C 6.868051 -14.257011 0.000000 0
M  V30 126 O 7.368045 -15.123077 0.000000 0
M  V30 127 C 8.368070 -15.122903 0.000000 0
M  V30 128 C 1.367999 2.464318 0.000000 0
M  V30 129 O 1.367953 9.392243 0.000000 0
M  V30 130 C 1.868053 10.258132 0.000000 0
M  V30 131 O 2.868053 10.258134 0.000000 0
M  V30 132 C 1.367953 11.124012 0.000000 0
M  V30 133 C 2.367877 11.124012 0.000000 0
M  V30 134 C 0.367921 11.124012 0.000000 0
M  V30 135 Br 1.867965 15.454205 0.000000 0
M  V30 136 O 1.868087 3.330293 0.000000 0
M  V30 137 C 1.367987 4.196298 0.000000 0
M  V30 138 O 0.367986 4.196300 0.000000 0
M  V30 139 C 1.868087 5.062294 0.000000 0
M  V30 140 C 1.367987 5.928298 0.000000 0
M  V30 141 C 1.868087 6.794294 0.000000 0
M  V30 142 C 1.367987 7.660299 0.000000 0
M  V30 143 C 1.868087 8.526295 0.000000 0
M  V30 144 C 1.867890 11.990074 0.000000 0
M  V30 145 C 1.367990 12.856078 0.000000 0
M  V30 146 C 2.367922 12.856078 0.000000 0
M  V30 147 C 0.368065 12.856078 0.000000 0
M  V30 148 O -0.131865 11.990012 0.000000 0
M  V30 149 O -0.132029 13.721971 0.000000 0
M  V30 150 C -1.131953 13.721971 0.000000 0
M  V30 151 C -1.632047 14.587863 0.000000 0
M  V30 152 O -2.632072 14.587690 0.000000 0
M  V30 153 C -3.132066 15.453755 0.000000 0
M  V30 154 C -4.132091 15.453582 0.000000 0
M  V30 155 O -4.632085 16.319648 0.000000 0
M  V30 156 C -5.632109 16.319475 0.000000 0
M  V30 157 C -6.132103 17.185540 0.000000 0
M  V30 158 O -7.132128 17.185367 0.000000 0
M  V30 159 C -7.632122 18.051433 0.000000 0
M  V30 160 C -8.632147 18.051260 0.000000 0
M  V30 161 O -9.132241 18.917152 0.000000 0
M  V30 162 C -10.132166 18.917152 0.000000 0
M  V30 163 C -10.632260 19.783045 0.000000 0
M  V30 164 O -11.632184 19.783045 0.000000 0
M  V30 165 C -12.132278 20.648937 0.000000 0
M  V30 166 C -13.132203 20.648937 0.000000 0
M  V30 167 O -13.632297 21.514830 0.000000 0
M  V30 168 C -14.632222 21.514830 0.000000 0
M  V30 169 C -15.132316 22.380722 0.000000 0
M  V30 170 O -16.132340 22.380549 0.000000 0
M  V30 171 C -16.632334 23.246615 0.000000 0
M  V30 172 C -17.632359 23.246441 0.000000 0
M  V30 173 O -18.132353 24.112507 0.000000 0
M  V30 174 C -19.132378 24.112334 0.000000 0
M  V30 175 C -19.632372 24.978399 0.000000 0
M  V30 176 O -20.632397 24.978226 0.000000 0
M  V30 177 C -21.132391 25.844292 0.000000 0
M  V30 178 C 1.867928 13.722139 0.000000 0
M  V30 179 C 1.368028 14.588144 0.000000 0
M  V30 180 C 2.368060 14.588144 0.000000 0
M  V30 181 C 0.368103 14.588144 0.000000 0
M  V30 182 O -0.131828 13.722078 0.000000 0
M  V30 183 O -0.131991 15.454036 0.000000 0
M  V30 184 C -1.132016 15.453863 0.000000 0
M  V30 185 C -1.632010 16.319929 0.000000 0
M  V30 186 O -2.632034 16.319755 0.000000 0
M  V30 187 C -3.132028 17.185821 0.000000 0
M  V30 188 C -4.132053 17.185648 0.000000 0
M  V30 189 O -4.632047 18.051714 0.000000 0
M  V30 190 C -5.632072 18.051540 0.000000 0
M  V30 191 C 2.234027 0.964334 0.000000 0
M  V30 192 O 9.161951 0.964287 0.000000 0
M  V30 193 C 10.027840 1.464388 0.000000 0
M  V30 194 O 10.027842 2.464388 0.000000 0
M  V30 195 C 10.893720 0.964287 0.000000 0
M  V30 196 C 10.893720 1.964212 0.000000 0
M  V30 197 C 10.893720 -0.035745 0.000000 0
M  V30 198 Br 15.223913 1.464300 0.000000 0
M  V30 199 O 3.100001 1.464422 0.000000 0
M  V30 200 C 3.966006 0.964321 0.000000 0
M  V30 201 O 3.966008 -0.035679 0.000000 0
M  V30 202 C 4.832002 1.464422 0.000000 0
M  V30 203 C 5.698006 0.964321 0.000000 0
M  V30 204 C 6.564002 1.464422 0.000000 0
M  V30 205 C 7.430007 0.964321 0.000000 0
M  V30 206 C 8.296003 1.464422 0.000000 0
M  V30 207 C 11.759782 1.464225 0.000000 0
M  V30 208 C 12.625786 0.964325 0.000000 0
M  V30 209 C 12.625786 1.964257 0.000000 0
M  V30 210 C 12.625786 -0.035600 0.000000 0
M  V30 211 O 11.759720 -0.535531 0.000000 0
M  V30 212 O 13.491679 -0.535694 0.000000 0
M  V30 213 C 13.491679 -1.535619 0.000000 0
M  V30 214 C 14.357571 -2.035713 0.000000 0
M  V30 215 O 14.357398 -3.035737 0.000000 0
M  V30 216 C 15.223464 -3.535731 0.000000 0
M  V30 217 C 15.223290 -4.535756 0.000000 0
M  V30 218 O 16.089356 -5.035750 0.000000 0
M  V30 219 C 16.089183 -6.035775 0.000000 0
M  V30 220 C 16.955249 -6.535769 0.000000 0
M  V30 221 O 16.955075 -7.535793 0.000000 0
M  V30 222 C 17.821141 -8.035787 0.000000 0
M  V30 223 C 17.820968 -9.035812 0.000000 0
M  V30 224 O 18.686860 -9.535906 0.000000 0
M  V30 225 C 18.686860 -10.535831 0.000000 0
M  V30 226 C 19.552753 -11.035925 0.000000 0
M  V30 227 O 19.552753 -12.035850 0.000000 0
M  V30 228 C 20.418645 -12.535943 0.000000 0
M  V30 229 C 20.418645 -13.535868 0.000000 0
M  V30 230 O 21.284538 -14.035962 0.000000 0
M  V30 231 C 21.284538 -15.035887 0.000000 0
M  V30 232 C 22.150430 -15.535981 0.000000 0
M  V30 233 O 22.150257 -16.536006 0.000000 0
M  V30 234 C 23.016323 -17.036000 0.000000 0
M  V30 235 C 23.016149 -18.036024 0.000000 0
M  V30 236 O 23.882215 -18.536018 0.000000 0
M  V30 237 C 23.882042 -19.536043 0.000000 0
M  V30 238 C 24.748108 -20.036037 0.000000 0
M  V30 239 O 24.747934 -21.036062 0.000000 0
M  V30 240 C 25.614000 -21.536056 0.000000 0
M  V30 241 C 13.491847 1.464263 0.000000 0
M  V30 242 C 14.357852 0.964363 0.000000 0
M  V30 243 C 14.357852 1.964395 0.000000 0
M  V30 244 C 14.357852 -0.035562 0.000000 0
M  V30 245 O 13.491786 -0.535493 0.000000 0
M  V30 246 O 15.223744 -0.535656 0.000000 0
M  V30 247 C 15.223571 -1.535681 0.000000 0
M  V30 248 C 16.089637 -2.035675 0.000000 0
M  V30 249 O 16.089463 -3.035700 0.000000 0
M  V30 250 C 16.955529 -3.535694 0.000000 0
M  V30 251 C 16.955356 -4.535718 0.000000 0
M  V30 252 O 17.821422 -5.035712 0.000000 0
M  V30 253 C 17.821248 -6.035737 0.000000 0
M  V30 END ATOM
M  V30 BEGIN BOND
M  V30 1 1 3 4
M  V30 2 2 4 5
M  V30 3 1 4 6
M  V30 4 1 6 7
M  V30 5 1 6 8
M  V30 6 1 10 11
M  V30 7 2 11 12
M  V30 8 1 11 13
M  V30 9 1 13 14
M  V30 10 1 14 15
M  V30 11 1 15 16
M  V30 12 1 16 17
M  V30 13 1 2 10
M  V30 14 1 3 17
M  V30 15 1 18 19
M  V30 16 1 19 20
M  V30 17 1 19 21
M  V30 18 2 21 22
M  V30 19 1 21 23
M  V30 20 1 23 24
M  V30 21 1 24 25
M  V30 22 1 25 26
M  V30 23 1 26 27
M  V30 24 1 27 28
M  V30 25 1 28 29
M  V30 26 1 29 30
M  V30 27 1 30 31
M  V30 28 1 31 32
M  V30 29 1 32 33
M  V30 30 1 33 34
M  V30 31 1 34 35
M  V30 32 1 35 36
M  V30 33 1 36 37
M  V30 34 1 37 38
M  V30 35 1 38 39
M  V30 36 1 39 40
M  V30 37 1 40 41
M  V30 38 1 41 42
M  V30 39 1 42 43
M  V30 40 1 43 44
M  V30 41 1 44 45
M  V30 42 1 45 46
M  V30 43 1 46 47
M  V30 44 1 47 48
M  V30 45 1 48 49
M  V30 46 1 49 50
M  V30 47 1 50 51
M  V30 48 1 6 18
M  V30 49 1 52 53
M  V30 50 1 53 54
M  V30 51 1 53 55
M  V30 52 2 55 56
M  V30 53 1 55 57
M  V30 54 1 57 58
M  V30 55 1 58 59
M  V30 56 1 59 60
M  V30 57 1 60 61
M  V30 58 1 61 62
M  V30 59 1 62 63
M  V30 60 1 63 64
M  V30 61 1 19 52
M  V30 62 1 9 53
M  V30 63 1 1 2
M  V30 64 1 66 67
M  V30 65 2 67 68
M  V30 66 1 67 69
M  V30 67 1 69 70
M  V30 68 1 69 71
M  V30 69 1 73 74
M  V30 70 2 74 75
M  V30 71 1 74 76
M  V30 72 1 76 77
M  V30 73 1 77 78
M  V30 74 1 78 79
M  V30 75 1 79 80
M  V30 76 1 65 73
M  V30 77 1 66 80
M  V30 78 1 81 82
M  V30 79 1 82 83
M  V30 80 1 82 84
M  V30 81 2 84 85
M  V30 82 1 84 86
M  V30 83 1 86 87
M  V30 84 1 87 88
M  V30 85 1 88 89
M  V30 86 1 89 90
M  V30 87 1 90 91
M  V30 88 1 91 92
M  V30 89 1 92 93
M  V30 90 1 93 94
M  V30 91 1 94 95
M  V30 92 1 95 96
M  V30 93 1 96 97
M  V30 94 1 97 98
M  V30 95 1 98 99
M  V30 96 1 99 100
M  V30 97 1 100 101
M  V30 98 1 101 102
M  V30 99 1 102 103
M  V30 100 1 103 104
M  V30 101 1 104 105
M  V30 102 1 105 106
M  V30 103 1 106 107
M  V30 104 1 107 108
M  V30 105 1 108 109
M  V30 106 1 109 110
M  V30 107 1 110 111
M  V30 108 1 111 112
M  V30 109 1 112 113
M  V30 110 1 113 114
M  V30 111 1 69 81
M  V30 112 1 115 116
M  V30 113 1 116 117
M  V30 114 1 116 118
M  V30 115 2 118 119
M  V30 116 1 118 120
M  V30 117 1 120 121
M  V30 118 1 121 122
M  V30 119 1 122 123
M  V30 120 1 123 124
M  V30 121 1 124 125
M  V30 122 1 125 126
M  V30 123 1 126 127
M  V30 124 1 82 115
M  V30 125 1 72 116
M  V30 126 1 1 65
M  V30 127 1 129 130
M  V30 128 2 130 131
M  V30 129 1 130 132
M  V30 130 1 132 133
M  V30 131 1 132 134
M  V30 132 1 136 137
M  V30 133 2 137 138
M  V30 134 1 137 139
M  V30 135 1 139 140
M  V30 136 1 140 141
M  V30 137 1 141 142
M  V30 138 1 142 143
M  V30 139 1 128 136
M  V30 140 1 129 143
M  V30 141 1 144 145
M  V30 142 1 145 146
M  V30 143 1 145 147
M  V30 144 2 147 148
M  V30 145 1 147 149
M  V30 146 1 149 150
M  V30 147 1 150 151
M  V30 148 1 151 152
M  V30 149 1 152 153
M  V30 150 1 153 154
M  V30 151 1 154 155
M  V30 152 1 155 156
M  V30 153 1 156 157
M  V30 154 1 157 158
M  V30 155 1 158 159
M  V30 156 1 159 160
M  V30 157 1 160 161
M  V30 158 1 161 162
M  V30 159 1 162 163
M  V30 160 1 163 164
M  V30 161 1 164 165
M  V30 162 1 165 166
M  V30 163 1 166 167
M  V30 164 1 167 168
M  V30 165 1 168 169
M  V30 166 1 169 170
M  V30 167 1 170 171
M  V30 168 1 171 172
M  V30 169 1 172 173
M  V30 170 1 173 174
M  V30 171 1 174 175
M  V30 172 1 175 176
M  V30 173 1 176 177
M  V30 174 1 132 144
M  V30 175 1 178 179
M  V30 176 1 179 180
M  V30 177 1 179 181
M  V30 178 2 181 182
M  V30 179 1 181 183
M  V30 180 1 183 184
M  V30 181 1 184 185
M  V30 182 1 185 186
M  V30 183 1 186 187
M  V30 184 1 187 188
M  V30 185 1 188 189
M  V30 186 1 189 190
M  V30 187 1 145 178
M  V30 188 1 135 179
M  V30 189 1 1 128
M  V30 190 1 192 193
M  V30 191 2 193 194
M  V30 192 1 193 195
M  V30 193 1 195 196
M  V30 194 1 195 197
M  V30 195 1 199 200
M  V30 196 2 200 201
M  V30 197 1 200 202
M  V30 198 1 202 203
M  V30 199 1 203 204
M  V30 200 1 204 205
M  V30 201 1 205 206
M  V30 202 1 191 199
M  V30 203 1 192 206
M  V30 204 1 207 208
M  V30 205 1 208 209
M  V30 206 1 208 210
M  V30 207 2 210 211
M  V30 208 1 210 212
M  V30 209 1 212 213
M  V30 210 1 213 214
M  V30 211 1 214 215
M  V30 212 1 215 216
M  V30 213 1 216 217
M  V30 214 1 217 218
M  V30 215 1 218 219
M  V30 216 1 219 220
M  V30 217 1 220 221
M  V30 218 1 221 222
M  V30 219 1 222 223
M  V30 220 1 223 224
M  V30 221 1 224 225
M  V30 222 1 225 226
M  V30 223 1 226 227
M  V30 224 1 227 228
M  V30 225 1 228 229
M  V30 226 1 229 230
M  V30 227 1 230 231
M  V30 228 1 231 232
M  V30 229 1 232 233
M  V30 230 1 233 234
M  V30 231 1 234 235
M  V30 232 1 235 236
M  V30 233 1 236 237
M  V30 234 1 237 238
M  V30 235 1 238 239
M  V30 236 1 239 240
M  V30 237 1 195 207
M  V30 238 1 241 242
M  V30 239 1 242 243
M  V30 240 1 242 244
M  V30 241 2 244 245
M  V30 242 1 244 246
M  V30 243 1 246 247
M  V30 244 1 247 248
M  V30 245 1 248 249
M  V30 246 1 249 250
M  V30 247 1 250 251
M  V30 248 1 251 252
M  V30 249 1 252 253
M  V30 250 1 208 241
M  V30 251 1 198 242
M  V30 252 1 1 191
M  V30 END BOND
M  V30 BEGIN SGROUP
M  V30 1 SRU 0 ATOMS=(4 69 81 82 115) CBONDS=(2 111 124) -
M  V30 BRKXYZ=(9 0.6182 -8.6284 0 1.6180 -8.6284 0 0 0 0) BRKXYZ=(9 0.6181 -10-
M  V30 .3605 0 1.6179 -10.3605 0 0 0 0)
M  V30 2 SRU 0 ATOMS=(4 65 66 73 80) CBONDS=(2 76 77) -
M  V30 BRKXYZ=(9 0.6179 0.0313 0 1.6181 0.0313 0 0 0 0) BRKXYZ=(9 0.6179 -6.03-
M  V30 06 0 1.6181 -6.0306 0 0 0 0)
M  V30 3 SRU 0 ATOMS=(4 9 19 52 53) CBONDS=(2 61 62) -
M  V30 BRKXYZ=(9 -10.3228 1.7142 0 -10.3228 0.7144 0 0 0 0) BRKXYZ=(9 -12.0549-
M  V30  1.7142 0 -12.0549 0.7144 0 0 0 0)
M  V30 4 SRU 0 ATOMS=(4 6 18 19 52) CBONDS=(2 48 61) -
M  V30 BRKXYZ=(9 -8.5907 1.7142 0 -8.5907 0.7144 0 0 0 0) BRKXYZ=(9 -10.3228 1-
M  V30 .7142 0 -10.3228 0.7144 0 0 0 0)
M  V30 5 SRU 0 ATOMS=(4 2 3 10 17) CBONDS=(2 13 14) -
M  V30 BRKXYZ=(9 0.0690 1.7145 0 0.0690 0.7143 0 0 0 0) BRKXYZ=(9 -5.9930 1.71-
M  V30 45 0 -5.9930 0.7143 0 0 0 0)
M  V30 6 SRU 0 ATOMS=(4 198 208 241 242) CBONDS=(2 250 251) -
M  V30 BRKXYZ=(9 13.0588 1.7142 0 13.0588 0.7144 0 0 0 0) BRKXYZ=(9 14.7909 1.-
M  V30 7142 0 14.7909 0.7144 0 0 0 0)
M  V30 7 SRU 0 ATOMS=(4 195 207 208 241) CBONDS=(2 237 250) -
M  V30 BRKXYZ=(9 11.3268 1.7142 0 11.3268 0.7144 0 0 0 0) BRKXYZ=(9 13.0588 1.-
M  V30 7142 0 13.0588 0.7144 0 0 0 0)
M  V30 8 SRU 0 ATOMS=(4 191 192 199 206) CBONDS=(2 202 203) -
M  V30 BRKXYZ=(9 2.6670 1.7145 0 2.6670 0.7143 0 0 0 0) BRKXYZ=(9 8.7290 1.714-
M  V30 5 0 8.7290 0.7143 0 0 0 0)
M  V30 9 SRU 0 ATOMS=(4 135 145 178 179) CBONDS=(2 187 188) -
M  V30 BRKXYZ=(9 2.1179 13.2891 0 1.1181 13.2891 0 0 0 0) BRKXYZ=(9 2.1179 15.-
M  V30 0212 0 1.1181 15.0212 0 0 0 0)
M  V30 10 SRU 0 ATOMS=(4 132 144 145 178) CBONDS=(2 174 187) -
M  V30 BRKXYZ=(9 2.1178 11.5570 0 1.1180 11.5570 0 0 0 0) BRKXYZ=(9 2.1179 13.-
M  V30 2891 0 1.1181 13.2891 0 0 0 0)
M  V30 11 SRU 0 ATOMS=(4 128 129 136 143) CBONDS=(2 139 140) -
M  V30 BRKXYZ=(9 2.1181 2.8973 0 1.1179 2.8973 0 0 0 0) BRKXYZ=(9 2.1181 8.959-
M  V30 3 0 1.1179 8.9593 0 0 0 0)
M  V30 12 SRU 0 ATOMS=(4 72 82 115 116) CBONDS=(2 124 125) -
M  V30 BRKXYZ=(9 0.6181 -10.3605 0 1.6179 -10.3605 0 0 0 0) BRKXYZ=(9 0.6181 --
M  V30 12.0925 0 1.6179 -12.0925 0 0 0 0)
M  V30 END SGROUP
M  V30 END CTAB
M  END
>  <BIGSMILES_BRACKET_RECORDS_JSON>
{
  "records": [
    {
      "id": 0,
      "bracket_kind": "backbone",
      "pairing_id": "F9/fragments[0]",
      "group_id": "$a:2",
      "ru_midpoint": [
        1.1180576905461268,
        -9.49446772761777
      ],
      "bond_midpoint": [
        1.1180764889126242,
        -8.628406053425328
      ],
      "orientation_vector": [
        -1.0,
        0.0
      ],
      "half_bracket_size": 0.4999001600153621,
      "bond": [
        68,
        80
      ],
      "fragment": "F9",
      "backbone": true,
      "suspended_anchor_atom": null,
      "suspended_reason": null,
      "source_label": "F9/fragments[0]",
      "marker_id": "0",
      "side": "left",
      "connection_group": "$a",
      "marker_type_index": 2
    },
    {
      "id": 1,
      "bracket_kind": "backbone",
      "pairing_id": "F9/fragments[0]",
      "group_id": "$a:2",
      "ru_midpoint": [
        1.1180576905461268,
        -9.49446772761777
      ],
      "bond_midpoint": [
        1.118038892179628,
        -10.360471749506628
      ],
      "orientation_vector": [
        -1.0,
        0.0
      ],
      "half_bracket_size": 0.4999001600153621,
      "bond": [
        81,
        114
      ],
      "fragment": "F9",
      "backbone": true,
      "suspended_anchor_atom": null,
      "suspended_reason": null,
      "source_label": "F9/fragments[0]",
      "marker_id": "35",
      "side": "right",
      "connection_group": "$a",
      "marker_type_index": 2
    },
    {
      "id": 2,
      "bracket_kind": "backbone",
      "pairing_id": "F8/fragments[0]",
      "group_id": ">1:4",
      "ru_midpoint": [
        1.145744549222948,
        -2.9996465515772934
      ],
      "bond_midpoint": [
        1.117955040996608,
        0.03133114757274247
      ],
      "orientation_vector": [
        -1.0,
        0.0
      ],
      "half_bracket_size": 0.5001001599500269,
      "bond": [
        64,
        72
      ],
      "fragment": "F8",
      "backbone": true,
      "suspended_anchor_atom": null,
      "suspended_reason": null,
      "source_label": "F8/fragments[0]",
      "marker_id": "0",
      "side": "left",
      "connection_group": ">1",
      "marker_type_index": 4
    },
    {
      "id": 3,
      "bracket_kind": "backbone",
      "pairing_id": "F8/fragments[0]",
      "group_id": "<1:3",
      "ru_midpoint": [
        1.145744549222948,
        -2.9996465515772934
      ],
      "bond_midpoint": [
        1.1179782471576465,
        -6.03063183819916
      ],
      "orientation_vector": [
        -1.0,
        0.0
      ],
      "half_bracket_size": 0.5001001599500269,
      "bond": [
        65,
        79
      ],
      "fragment": "F8",
      "backbone": true,
      "suspended_anchor_atom": null,
      "suspended_reason": null,
      "source_label": "F8/fragments[0]",
      "marker_id": "9",
      "side": "right",
      "connection_group": "<1",
      "marker_type_index": 3
    },
    {
      "id": 4,
      "bracket_kind": "backbone",
      "pairing_id": "F7/fragments[0]",
      "group_id": "$a:2",
      "ru_midpoint": [
        -11.188823090301725,
        1.214312624139235
      ],
      "bond_midpoint": [
        -10.322790242261076,
        1.214293825772736
      ],
      "orientation_vector": [
        0.0,
        1.0
      ],
      "half_bracket_size": 0.49990016001536364,
      "bond": [
        18,
        51
      ],
      "fragment": "F7",
      "backbone": true,
      "suspended_anchor_atom": null,
      "suspended_reason": null,
      "source_label": "F7/fragments[0]",
      "marker_id": "0",
      "side": "left",
      "connection_group": "$a",
      "marker_type_index": 2
    },
    {
      "id": 5,
      "bracket_kind": "backbone",
      "pairing_id": "F7/fragments[0]",
      "group_id": "$a:2",
      "ru_midpoint": [
        -11.188823090301725,
        1.214312624139235
      ],
      "bond_midpoint": [
        -12.054855938342374,
        1.214331422505735
      ],
      "orientation_vector": [
        0.0,
        1.0
      ],
      "half_bracket_size": 0.49990016001536364,
      "bond": [
        8,
        52
      ],
      "fragment": "F7",
      "backbone": true,
      "suspended_anchor_atom": null,
      "suspended_reason": null,
      "source_label": "F7/fragments[0]",
      "marker_id": "14",
      "side": "right",
      "connection_group": "$a",
      "marker_type_index": 2
    },
    {
      "id": 6,
      "bracket_kind": "backbone",
      "pairing_id": "F6/fragments[0]",
      "group_id": "$a:2",
      "ru_midpoint": [
        -9.45678622037222,
        1.2142750274062368
      ],
      "bond_midpoint": [
        -8.590724546179777,
        1.214256229039739
      ],
      "orientation_vector": [
        0.0,
        1.0
      ],
      "half_bracket_size": 0.4999001600153621,
      "bond": [
        5,
        17
      ],
      "fragment": "F6",
      "backbone": true,
      "suspended_anchor_atom": null,
      "suspended_reason": null,
      "source_label": "F6/fragments[0]",
      "marker_id": "0",
      "side": "left",
      "connection_group": "$a",
      "marker_type_index": 2
    },
    {
      "id": 7,
      "bracket_kind": "backbone",
      "pairing_id": "F6/fragments[0]",
      "group_id": "$a:2",
      "ru_midpoint": [
        -9.45678622037222,
        1.2142750274062368
      ],
      "bond_midpoint": [
        -10.322790242261076,
        1.214293825772736
      ],
      "orientation_vector": [
        0.0,
        1.0
      ],
      "half_bracket_size": 0.4999001600153621,
      "bond": [
        18,
        51
      ],
      "fragment": "F6",
      "backbone": true,
      "suspended_anchor_atom": null,
      "suspended_reason": null,
      "source_label": "F6/fragments[0]",
      "marker_id": "35",
      "side": "right",
      "connection_group": "$a",
      "marker_type_index": 2
    },
    {
      "id": 8,
      "bracket_kind": "backbone",
      "pairing_id": "F5/fragments[0]",
      "group_id": ">1:4",
      "ru_midpoint": [
        -2.9619650443317447,
        1.186588168729412
      ],
      "bond_midpoint": [
        0.06901265481829189,
        1.2143776769557508
      ],
      "orientation_vector": [
        0.0,
        1.0
      ],
      "half_bracket_size": 0.5001001599500269,
      "bond": [
        1,
        9
      ],
      "fragment": "F5",
      "backbone": true,
      "suspended_anchor_atom": null,
      "suspended_reason": null,
      "source_label": "F5/fragments[0]",
      "marker_id": "0",
      "side": "left",
      "connection_group": ">1",
      "marker_type_index": 4
    },
    {
      "id": 9,
      "bracket_kind": "backbone",
      "pairing_id": "F5/fragments[0]",
      "group_id": "<1:3",
      "ru_midpoint": [
        -2.9619650443317447,
        1.186588168729412
      ],
      "bond_midpoint": [
        -5.992950330953611,
        1.2143544707947154
      ],
      "orientation_vector": [
        0.0,
        1.0
      ],
      "half_bracket_size": 0.5001001599500269,
      "bond": [
        2,
        16
      ],
      "fragment": "F5",
      "backbone": true,
      "suspended_anchor_atom": null,
      "suspended_reason": null,
      "source_label": "F5/fragments[0]",
      "marker_id": "9",
      "side": "right",
      "connection_group": "<1",
      "marker_type_index": 3
    },
    {
      "id": 10,
      "bracket_kind": "backbone",
      "pairing_id": "F16/fragments[0]",
      "group_id": "$a:2",
      "ru_midpoint": [
        13.924849637205647,
        1.214312624139235
      ],
      "bond_midpoint": [
        13.058816789164998,
        1.214293825772736
      ],
      "orientation_vector": [
        0.0,
        1.0
      ],
      "half_bracket_size": 0.49990016001536364,
      "bond": [
        207,
        240
      ],
      "fragment": "F16",
      "backbone": true,
      "suspended_anchor_atom": null,
      "suspended_reason": null,
      "source_label": "F16/fragments[0]",
      "marker_id": "0",
      "side": "left",
      "connection_group": "$a",
      "marker_type_index": 2
    },
    {
      "id": 11,
      "bracket_kind": "backbone",
      "pairing_id": "F16/fragments[0]",
      "group_id": "$a:2",
      "ru_midpoint": [
        13.924849637205647,
        1.214312624139235
      ],
      "bond_midpoint": [
        14.790882485246296,
        1.214331422505735
      ],
      "orientation_vector": [
        0.0,
        1.0
      ],
      "half_bracket_size": 0.49990016001536364,
      "bond": [
        197,
        241
      ],
      "fragment": "F16",
      "backbone": true,
      "suspended_anchor_atom": null,
      "suspended_reason": null,
      "source_label": "F16/fragments[0]",
      "marker_id": "14",
      "side": "right",
      "connection_group": "$a",
      "marker_type_index": 2
    },
    {
      "id": 12,
      "bracket_kind": "backbone",
      "pairing_id": "F15/fragments[0]",
      "group_id": "$a:2",
      "ru_midpoint": [
        12.192812767276141,
        1.2142750274062368
      ],
      "bond_midpoint": [
        11.326751093083699,
        1.214256229039739
      ],
      "orientation_vector": [
        0.0,
        1.0
      ],
      "half_bracket_size": 0.4999001600153621,
      "bond": [
        194,
        206
      ],
      "fragment": "F15",
      "backbone": true,
      "suspended_anchor_atom": null,
      "suspended_reason": null,
      "source_label": "F15/fragments[0]",
      "marker_id": "0",
      "side": "left",
      "connection_group": "$a",
      "marker_type_index": 2
    },
    {
      "id": 13,
      "bracket_kind": "backbone",
      "pairing_id": "F15/fragments[0]",
      "group_id": "$a:2",
      "ru_midpoint": [
        12.192812767276141,
        1.2142750274062368
      ],
      "bond_midpoint": [
        13.058816789164998,
        1.214293825772736
      ],
      "orientation_vector": [
        0.0,
        1.0
      ],
      "half_bracket_size": 0.4999001600153621,
      "bond": [
        207,
        240
      ],
      "fragment": "F15",
      "backbone": true,
      "suspended_anchor_atom": null,
      "suspended_reason": null,
      "source_label": "F15/fragments[0]",
      "marker_id": "35",
      "side": "right",
      "connection_group": "$a",
      "marker_type_index": 2
    },
    {
      "id": 14,
      "bracket_kind": "backbone",
      "pairing_id": "F14/fragments[0]",
      "group_id": ">1:4",
      "ru_midpoint": [
        5.697991591235667,
        1.186588168729412
      ],
      "bond_midpoint": [
        2.66701389208563,
        1.2143776769557508
      ],
      "orientation_vector": [
        0.0,
        1.0
      ],
      "half_bracket_size": 0.5001001599500269,
      "bond": [
        190,
        198
      ],
      "fragment": "F14",
      "backbone": true,
      "suspended_anchor_atom": null,
      "suspended_reason": null,
      "source_label": "F14/fragments[0]",
      "marker_id": "0",
      "side": "left",
      "connection_group": ">1",
      "marker_type_index": 4
    },
    {
      "id": 15,
      "bracket_kind": "backbone",
      "pairing_id": "F14/fragments[0]",
      "group_id": "<1:3",
      "ru_midpoint": [
        5.697991591235667,
        1.186588168729412
      ],
      "bond_midpoint": [
        8.728976877857534,
        1.2143544707947154
      ],
      "orientation_vector": [
        0.0,
        1.0
      ],
      "half_bracket_size": 0.5001001599500269,
      "bond": [
        191,
        205
      ],
      "fragment": "F14",
      "backbone": true,
      "suspended_anchor_atom": null,
      "suspended_reason": null,
      "source_label": "F14/fragments[0]",
      "marker_id": "9",
      "side": "right",
      "connection_group": "<1",
      "marker_type_index": 3
    },
    {
      "id": 16,
      "bracket_kind": "backbone",
      "pairing_id": "F13/fragments[0]",
      "group_id": "$a:2",
      "ru_midpoint": [
        1.617977816116318,
        14.155141583056174
      ],
      "bond_midpoint": [
        1.6179590177498198,
        13.289108735015526
      ],
      "orientation_vector": [
        1.0,
        0.0
      ],
      "half_bracket_size": 0.49990016001536364,
      "bond": [
        144,
        177
      ],
      "fragment": "F13",
      "backbone": true,
      "suspended_anchor_atom": null,
      "suspended_reason": null,
      "source_label": "F13/fragments[0]",
      "marker_id": "0",
      "side": "left",
      "connection_group": "$a",
      "marker_type_index": 2
    },
    {
      "id": 17,
      "bracket_kind": "backbone",
      "pairing_id": "F13/fragments[0]",
      "group_id": "$a:2",
      "ru_midpoint": [
        1.617977816116318,
        14.155141583056174
      ],
      "bond_midpoint": [
        1.6179966144828168,
        15.021174431096824
      ],
      "orientation_vector": [
        1.0,
        0.0
      ],
      "half_bracket_size": 0.49990016001536364,
      "bond": [
        134,
        178
      ],
      "fragment": "F13",
      "backbone": true,
      "suspended_anchor_atom": null,
      "suspended_reason": null,
      "source_label": "F13/fragments[0]",
      "marker_id": "14",
      "side": "right",
      "connection_group": "$a",
      "marker_type_index": 2
    },
    {
      "id": 18,
      "bracket_kind": "backbone",
      "pairing_id": "F12/fragments[0]",
      "group_id": "$a:2",
      "ru_midpoint": [
        1.6179402193833217,
        12.42310471312667
      ],
      "bond_midpoint": [
        1.6179214210168245,
        11.557043038934227
      ],
      "orientation_vector": [
        1.0,
        0.0
      ],
      "half_bracket_size": 0.4999001600153621,
      "bond": [
        131,
        143
      ],
      "fragment": "F12",
      "backbone": true,
      "suspended_anchor_atom": null,
      "suspended_reason": null,
      "source_label": "F12/fragments[0]",
      "marker_id": "0",
      "side": "left",
      "connection_group": "$a",
      "marker_type_index": 2
    },
    {
      "id": 19,
      "bracket_kind": "backbone",
      "pairing_id": "F12/fragments[0]",
      "group_id": "$a:2",
      "ru_midpoint": [
        1.6179402193833217,
        12.42310471312667
      ],
      "bond_midpoint": [
        1.6179590177498198,
        13.289108735015526
      ],
      "orientation_vector": [
        1.0,
        0.0
      ],
      "half_bracket_size": 0.4999001600153621,
      "bond": [
        144,
        177
      ],
      "fragment": "F12",
      "backbone": true,
      "suspended_anchor_atom": null,
      "suspended_reason": null,
      "source_label": "F12/fragments[0]",
      "marker_id": "35",
      "side": "right",
      "connection_group": "$a",
      "marker_type_index": 2
    },
    {
      "id": 20,
      "bracket_kind": "backbone",
      "pairing_id": "F11/fragments[0]",
      "group_id": ">1:4",
      "ru_midpoint": [
        1.590253360706504,
        5.928283537086196
      ],
      "bond_midpoint": [
        1.6180428689328457,
        2.897305837936159
      ],
      "orientation_vector": [
        1.0,
        0.0
      ],
      "half_bracket_size": 0.5001001599500269,
      "bond": [
        127,
        135
      ],
      "fragment": "F11",
      "backbone": true,
      "suspended_anchor_atom": null,
      "suspended_reason": null,
      "source_label": "F11/fragments[0]",
      "marker_id": "0",
      "side": "left",
      "connection_group": ">1",
      "marker_type_index": 4
    },
    {
      "id": 21,
      "bracket_kind": "backbone",
      "pairing_id": "F11/fragments[0]",
      "group_id": "<1:3",
      "ru_midpoint": [
        1.590253360706504,
        5.928283537086196
      ],
      "bond_midpoint": [
        1.6180196627718035,
        8.959268823708062
      ],
      "orientation_vector": [
        1.0,
        0.0
      ],
      "half_bracket_size": 0.5001001599500269,
      "bond": [
        128,
        142
      ],
      "fragment": "F11",
      "backbone": true,
      "suspended_anchor_atom": null,
      "suspended_reason": null,
      "source_label": "F11/fragments[0]",
      "marker_id": "9",
      "side": "right",
      "connection_group": "<1",
      "marker_type_index": 3
    },
    {
      "id": 22,
      "bracket_kind": "backbone",
      "pairing_id": "F10/fragments[0]",
      "group_id": "$a:2",
      "ru_midpoint": [
        1.1180200938131297,
        -11.226504597547276
      ],
      "bond_midpoint": [
        1.118038892179628,
        -10.360471749506628
      ],
      "orientation_vector": [
        -1.0,
        0.0
      ],
      "half_bracket_size": 0.49990016001536364,
      "bond": [
        81,
        114
      ],
      "fragment": "F10",
      "backbone": true,
      "suspended_anchor_atom": null,
      "suspended_reason": null,
      "source_label": "F10/fragments[0]",
      "marker_id": "0",
      "side": "left",
      "connection_group": "$a",
      "marker_type_index": 2
    },
    {
      "id": 23,
      "bracket_kind": "backbone",
      "pairing_id": "F10/fragments[0]",
      "group_id": "$a:2",
      "ru_midpoint": [
        1.1180200938131297,
        -11.226504597547276
      ],
      "bond_midpoint": [
        1.11800129544663,
        -12.092537445587926
      ],
      "orientation_vector": [
        -1.0,
        0.0
      ],
      "half_bracket_size": 0.49990016001536364,
      "bond": [
        71,
        115
      ],
      "fragment": "F10",
      "backbone": true,
      "suspended_anchor_atom": null,
      "suspended_reason": null,
      "source_label": "F10/fragments[0]",
      "marker_id": "14",
      "side": "right",
      "connection_group": "$a",
      "marker_type_index": 2
    }
  ]
}
