
     RDKit          2D

  0  0  0  0  0  0  0  0  0  0999 V3000
M  V30 BEGIN CTAB
M  V30 COUNTS 253 252 12 0 0
M  V30 BEGIN ATOM
M  V30 1 C 1.367999 1.464322 0.000000 0
M  V30 2 C 0.502000 0.964337 0.000000 0
M  V30 3 O -6.425924 0.964290 0.000000 0
M  V30 4 C -7.291813 1.464391 0.000000 0
M  V30 5 O -7.291815 2.464391 0.000000 0
M  V30 6 C -8.157694 0.964290 0.000000 0
M  V30 7 C -8.157694 1.964215 0.000000 0
M  V30 8 C -8.157694 -0.035742 0.000000 0
M  V30 9 Br -12.487915 1.464253 0.000000 0
M  V30 10 O -0.363975 1.464425 0.000000 0
M  V30 11 C -1.229979 0.964325 0.000000 0
M  V30 12 O -1.229981 -0.035676 0.000000 0
M  V30 13 C -2.095975 1.464425 0.000000 0
M  V30 14 C -2.961980 0.964325 0.000000 0
M  V30 15 C -3.827976 1.464425 0.000000 0
M  V30 16 C -4.693980 0.964325 0.000000 0
M  V30 17 C -5.559976 1.464425 0.000000 0
M  V30 18 C -9.023755 1.464228 0.000000 0
M  V30 19 C -9.889760 0.964328 0.000000 0
M  V30 20 C -9.889760 1.964360 0.000000 0
M  V30 21 C -9.889760 -0.035597 0.000000 0
M  V30 22 O -9.023694 -0.535527 0.000000 0
M  V30 23 O -10.755652 -0.535691 0.000000 0
M  V30 24 C -10.755479 -1.535715 0.000000 0
M  V30 25 C -11.621545 -2.035709 0.000000 0
M  V30 26 O -11.621371 -3.035734 0.000000 0
M  V30 27 C -12.487437 -3.535728 0.000000 0
M  V30 28 C -12.487264 -4.535753 0.000000 0
M  V30 29 O -13.353329 -5.035747 0.000000 0
M  V30 30 C -13.353156 -6.035772 0.000000 0
M  V30 31 C -10.755821 1.464266 0.000000 0
M  V30 32 C -11.621825 0.964366 0.000000 0
M  V30 33 C -11.621825 1.964297 0.000000 0
M  V30 34 C -11.621825 -0.035559 0.000000 0
M  V30 35 O -10.755759 -0.535490 0.000000 0
M  V30 36 O -12.487718 -0.535653 0.000000 0
M  V30 37 C -12.487718 -1.535578 0.000000 0
M  V30 38 C -13.353610 -2.035672 0.000000 0
M  V30 39 O -13.353437 -3.035696 0.000000 0
M  V30 40 C -14.219503 -3.535691 0.000000 0
M  V30 41 C -14.219329 -4.535715 0.000000 0
M  V30 42 O -15.085395 -5.035709 0.000000 0
M  V30 43 C -15.085222 -6.035734 0.000000 0
M  V30 44 C -15.951288 -6.535728 0.000000 0
M  V30 45 O -15.951114 -7.535753 0.000000 0
M  V30 46 C -16.817180 -8.035747 0.000000 0
M  V30 47 C -16.817007 -9.035771 0.000000 0
M  V30 48 O -17.682899 -9.535865 0.000000 0
M  V30 49 C -17.682899 -10.535790 0.000000 0
M  V30 50 C -18.548792 -11.035884 0.000000 0
M  V30 51 O -18.548792 -12.035809 0.000000 0
M  V30 52 C -19.414684 -12.535903 0.000000 0
M  V30 53 C -19.414684 -13.535828 0.000000 0
M  V30 54 O -20.280577 -14.035921 0.000000 0
M  V30 55 C -20.280577 -15.035846 0.000000 0
M  V30 56 C -21.146469 -15.535940 0.000000 0
M  V30 57 O -21.146296 -16.535965 0.000000 0
M  V30 58 C -22.012362 -17.035959 0.000000 0
M  V30 59 C -22.012188 -18.035984 0.000000 0
M  V30 60 O -22.878254 -18.535978 0.000000 0
M  V30 61 C -22.878081 -19.536002 0.000000 0
M  V30 62 C -23.744147 -20.035996 0.000000 0
M  V30 63 O -23.743973 -21.036021 0.000000 0
M  V30 64 C -24.610039 -21.536015 0.000000 0
M  V30 65 C 1.367999 0.464322 0.000000 0
M  V30 66 O 1.368045 -6.463603 0.000000 0
M  V30 67 C 0.867945 -7.329492 0.000000 0
M  V30 68 O -0.132055 -7.329494 0.000000 0
M  V30 69 C 1.368045 -8.195372 0.000000 0
M  V30 70 C 0.368121 -8.195372 0.000000 0
M  V30 71 C 2.368077 -8.195372 0.000000 0
M  V30 72 Br 0.868082 -12.525594 0.000000 0
M  V30 73 O 0.867911 -0.401653 0.000000 0
M  V30 74 C 1.368011 -1.267658 0.000000 0
M  V30 75 O 2.368012 -1.267660 0.000000 0
M  V30 76 C 0.867911 -2.133654 0.000000 0
M  V30 77 C 1.368011 -2.999658 0.000000 0
M  V30 78 C 0.867911 -3.865654 0.000000 0
M  V30 79 C 1.368011 -4.731659 0.000000 0
M  V30 80 C 0.867911 -5.597655 0.000000 0
M  V30 81 C 0.868108 -9.061434 0.000000 0
M  V30 82 C 1.368008 -9.927438 0.000000 0
M  V30 83 C 0.367976 -9.927438 0.000000 0
M  V30 84 C 2.367933 -9.927438 0.000000 0
M  V30 85 O 2.867863 -9.061372 0.000000 0
M  V30 86 O 2.868026 -10.793330 0.000000 0
M  V30 87 C 3.868051 -10.793157 0.000000 0
M  V30 88 C 4.368045 -11.659223 0.000000 0
M  V30 89 O 5.368070 -11.659050 0.000000 0
M  V30 90 C 5.868064 -12.525115 0.000000 0
M  V30 91 C 6.868089 -12.524942 0.000000 0
M  V30 92 O 7.368083 -13.391008 0.000000 0
M  V30 93 C 8.368107 -13.390835 0.000000 0
M  V30 94 C 0.868070 -10.793499 0.000000 0
M  V30 95 C 1.367970 -11.659504 0.000000 0
M  V30 96 C 0.368038 -11.659504 0.000000 0
M  V30 97 C 2.367895 -11.659504 0.000000 0
M  V30 98 O 2.867826 -10.793438 0.000000 0
M  V30 99 O 2.867989 -12.525396 0.000000 0
M  V30 100 C 3.867914 -12.525396 0.000000 0
M  V30 101 C 4.368008 -13.391289 0.000000 0
M  V30 102 O 5.368032 -13.391115 0.000000 0
M  V30 103 C 5.868026 -14.257181 0.000000 0
M  V30 104 C 6.868051 -14.257008 0.000000 0
M  V30 105 O 7.368045 -15.123074 0.000000 0
M  V30 106 C 8.368070 -15.122900 0.000000 0
M  V30 107 C 8.868064 -15.988966 0.000000 0
M  V30 108 O 9.868088 -15.988793 0.000000 0
M  V30 109 C 10.368083 -16.854859 0.000000 0
M  V30 110 C 11.368107 -16.854685 0.000000 0
M  V30 111 O 11.868201 -17.720578 0.000000 0
M  V30 112 C 12.868126 -17.720578 0.000000 0
M  V30 113 C 13.368220 -18.586470 0.000000 0
M  V30 114 O 14.368145 -18.586470 0.000000 0
M  V30 115 C 14.868239 -19.452363 0.000000 0
M  V30 116 C 15.868163 -19.452363 0.000000 0
M  V30 117 O 16.368257 -20.318255 0.000000 0
M  V30 118 C 17.368182 -20.318255 0.000000 0
M  V30 119 C 17.868276 -21.184148 0.000000 0
M  V30 120 O 18.868301 -21.183974 0.000000 0
M  V30 121 C 19.368295 -22.050040 0.000000 0
M  V30 122 C 20.368319 -22.049867 0.000000 0
M  V30 123 O 20.868313 -22.915933 0.000000 0
M  V30 124 C 21.868338 -22.915759 0.000000 0
M  V30 125 C 22.368332 -23.781825 0.000000 0
M  V30 126 O 23.368357 -23.781652 0.000000 0
M  V30 127 C 23.868351 -24.647718 0.000000 0
M  V30 128 C 1.367999 2.464322 0.000000 0
M  V30 129 O 1.367953 9.392246 0.000000 0
M  V30 130 C 1.868053 10.258135 0.000000 0
M  V30 131 O 2.868053 10.258137 0.000000 0
M  V30 132 C 1.367953 11.124015 0.000000 0
M  V30 133 C 2.367877 11.124015 0.000000 0
M  V30 134 C 0.367921 11.124015 0.000000 0
M  V30 135 Br 1.867916 15.454237 0.000000 0
M  V30 136 O 1.868087 3.330296 0.000000 0
M  V30 137 C 1.367987 4.196301 0.000000 0
M  V30 138 O 0.367986 4.196303 0.000000 0
M  V30 139 C 1.868087 5.062297 0.000000 0
M  V30 140 C 1.367987 5.928301 0.000000 0
M  V30 141 C 1.868087 6.794297 0.000000 0
M  V30 142 C 1.367987 7.660302 0.000000 0
M  V30 143 C 1.868087 8.526298 0.000000 0
M  V30 144 C 1.867890 11.990077 0.000000 0
M  V30 145 C 1.367990 12.856081 0.000000 0
M  V30 146 C 2.368022 12.856081 0.000000 0
M  V30 147 C 0.368065 12.856081 0.000000 0
M  V30 148 O -0.131865 11.990015 0.000000 0
M  V30 149 O -0.132029 13.721974 0.000000 0
M  V30 150 C -1.132053 13.721800 0.000000 0
M  V30 151 C -1.632047 14.587866 0.000000 0
M  V30 152 O -2.632072 14.587693 0.000000 0
M  V30 153 C -3.132066 15.453759 0.000000 0
M  V30 154 C -4.132091 15.453585 0.000000 0
M  V30 155 O -4.632085 16.319651 0.000000 0
M  V30 156 C -5.632109 16.319478 0.000000 0
M  V30 157 C 1.867928 13.722142 0.000000 0
M  V30 158 C 1.368028 14.588147 0.000000 0
M  V30 159 C 2.367960 14.588147 0.000000 0
M  V30 160 C 0.368103 14.588147 0.000000 0
M  V30 161 O -0.131828 13.722081 0.000000 0
M  V30 162 O -0.131991 15.454039 0.000000 0
M  V30 163 C -1.131916 15.454039 0.000000 0
M  V30 164 C -1.632010 16.319932 0.000000 0
M  V30 165 O -2.632034 16.319758 0.000000 0
M  V30 166 C -3.132028 17.185824 0.000000 0
M  V30 167 C -4.132053 17.185651 0.000000 0
M  V30 168 O -4.632047 18.051717 0.000000 0
M  V30 169 C -5.632072 18.051543 0.000000 0
M  V30 170 C -6.132066 18.917609 0.000000 0
M  V30 171 O -7.132091 18.917436 0.000000 0
M  V30 172 C -7.632085 19.783502 0.000000 0
M  V30 173 C -8.632109 19.783328 0.000000 0
M  V30 174 O -9.132203 20.649221 0.000000 0
M  V30 175 C -10.132128 20.649221 0.000000 0
M  V30 176 C -10.632222 21.515113 0.000000 0
M  V30 177 O -11.632147 21.515113 0.000000 0
M  V30 178 C -12.132241 22.381006 0.000000 0
M  V30 179 C -13.132165 22.381006 0.000000 0
M  V30 180 O -13.632259 23.246898 0.000000 0
M  V30 181 C -14.632184 23.246898 0.000000 0
M  V30 182 C -15.132278 24.112791 0.000000 0
M  V30 183 O -16.132303 24.112618 0.000000 0
M  V30 184 C -16.632297 24.978683 0.000000 0
M  V30 185 C -17.632321 24.978510 0.000000 0
M  V30 186 O -18.132316 25.844576 0.000000 0
M  V30 187 C -19.132340 25.844402 0.000000 0
M  V30 188 C -19.632334 26.710468 0.000000 0
M  V30 189 O -20.632359 26.710295 0.000000 0
M  V30 190 C -21.132353 27.576361 0.000000 0
M  V30 191 C 2.234027 0.964337 0.000000 0
M  V30 192 O 9.161951 0.964290 0.000000 0
M  V30 193 C 10.027840 1.464391 0.000000 0
M  V30 194 O 10.027842 2.464391 0.000000 0
M  V30 195 C 10.893720 0.964290 0.000000 0
M  V30 196 C 10.893720 1.964215 0.000000 0
M  V30 197 C 10.893720 -0.035742 0.000000 0
M  V30 198 Br 15.223942 1.464253 0.000000 0
M  V30 199 O 3.100001 1.464425 0.000000 0
M  V30 200 C 3.966006 0.964325 0.000000 0
M  V30 201 O 3.966008 -0.035676 0.000000 0
M  V30 202 C 4.832002 1.464425 0.000000 0
M  V30 203 C 5.698006 0.964325 0.000000 0
M  V30 204 C 6.564002 1.464425 0.000000 0
M  V30 205 C 7.430007 0.964325 0.000000 0
M  V30 206 C 8.296003 1.464425 0.000000 0
M  V30 207 C 11.759782 1.464228 0.000000 0
M  V30 208 C 12.625786 0.964328 0.000000 0
M  V30 209 C 12.625786 1.964360 0.000000 0
M  V30 210 C 12.625786 -0.035597 0.000000 0
M  V30 211 O 11.759720 -0.535527 0.000000 0
M  V30 212 O 13.491679 -0.535691 0.000000 0
M  V30 213 C 13.491505 -1.535715 0.000000 0
M  V30 214 C 14.357571 -2.035709 0.000000 0
M  V30 215 O 14.357398 -3.035734 0.000000 0
M  V30 216 C 15.223464 -3.535728 0.000000 0
M  V30 217 C 15.223290 -4.535753 0.000000 0
M  V30 218 O 16.089356 -5.035747 0.000000 0
M  V30 219 C 16.089183 -6.035772 0.000000 0
M  V30 220 C 13.491847 1.464266 0.000000 0
M  V30 221 C 14.357852 0.964366 0.000000 0
M  V30 222 C 14.357852 1.964297 0.000000 0
M  V30 223 C 14.357852 -0.035559 0.000000 0
M  V30 224 O 13.491786 -0.535490 0.000000 0
M  V30 225 O 15.223744 -0.535653 0.000000 0
M  V30 226 C 15.223744 -1.535578 0.000000 0
M  V30 227 C 16.089637 -2.035672 0.000000 0
M  V30 228 O 16.089463 -3.035696 0.000000 0
M  V30 229 C 16.955529 -3.535691 0.000000 0
M  V30 230 C 16.955356 -4.535715 0.000000 0
M  V30 231 O 17.821422 -5.035709 0.000000 0
M  V30 232 C 17.821248 -6.035734 0.000000 0
M  V30 233 C 18.687314 -6.535728 0.000000 0
M  V30 234 O 18.687141 -7.535753 0.000000 0
M  V30 235 C 19.553207 -8.035747 0.000000 0
M  V30 236 C 19.553033 -9.035771 0.000000 0
M  V30 237 O 20.418926 -9.535865 0.000000 0
M  V30 238 C 20.418926 -10.535790 0.000000 0
M  V30 239 C 21.284818 -11.035884 0.000000 0
M  V30 240 O 21.284818 -12.035809 0.000000 0
M  V30 241 C 22.150711 -12.535903 0.000000 0
M  V30 242 C 22.150711 -13.535828 0.000000 0
M  V30 243 O 23.016603 -14.035921 0.000000 0
M  V30 244 C 23.016603 -15.035846 0.000000 0
M  V30 245 C 23.882496 -15.535940 0.000000 0
M  V30 246 O 23.882322 -16.535965 0.000000 0
M  V30 247 C 24.748388 -17.035959 0.000000 0
M  V30 248 C 24.748215 -18.035984 0.000000 0
M  V30 249 O 25.614281 -18.535978 0.000000 0
M  V30 250 C 25.614107 -19.536002 0.000000 0
M  V30 251 C 26.480173 -20.035996 0.000000 0
M  V30 252 O 26.480000 -21.036021 0.000000 0
M  V30 253 C 27.346066 -21.536015 0.000000 0
M  V30 END ATOM
M  V30 BEGIN BOND
M  V30 1 1 3 4
M  V30 2 2 4 5
M  V30 3 1 4 6
M  V30 4 1 6 7
M  V30 5 1 6 8
M  V30 6 1 10 11
M  V30 7 2 11 12
M  V30 8 1 11 13
M  V30 9 1 13 14
M  V30 10 1 14 15
M  V30 11 1 15 16
M  V30 12 1 16 17
M  V30 13 1 2 10
M  V30 14 1 3 17
M  V30 15 1 18 19
M  V30 16 1 19 20
M  V30 17 1 19 21
M  V30 18 2 21 22
M  V30 19 1 21 23
M  V30 20 1 23 24
M  V30 21 1 24 25
M  V30 22 1 25 26
M  V30 23 1 26 27
M  V30 24 1 27 28
M  V30 25 1 28 29
M  V30 26 1 29 30
M  V30 27 1 6 18
M  V30 28 1 31 32
M  V30 29 1 32 33
M  V30 30 1 32 34
M  V30 31 2 34 35
M  V30 32 1 34 36
M  V30 33 1 36 37
M  V30 34 1 37 38
M  V30 35 1 38 39
M  V30 36 1 39 40
M  V30 37 1 40 41
M  V30 38 1 41 42
M  V30 39 1 42 43
M  V30 40 1 43 44
M  V30 41 1 44 45
M  V30 42 1 45 46
M  V30 43 1 46 47
M  V30 44 1 47 48
M  V30 45 1 48 49
M  V30 46 1 49 50
M  V30 47 1 50 51
M  V30 48 1 51 52
M  V30 49 1 52 53
M  V30 50 1 53 54
M  V30 51 1 54 55
M  V30 52 1 55 56
M  V30 53 1 56 57
M  V30 54 1 57 58
M  V30 55 1 58 59
M  V30 56 1 59 60
M  V30 57 1 60 61
M  V30 58 1 61 62
M  V30 59 1 62 63
M  V30 60 1 63 64
M  V30 61 1 19 31
M  V30 62 1 9 32
M  V30 63 1 1 2
M  V30 64 1 66 67
M  V30 65 2 67 68
M  V30 66 1 67 69
M  V30 67 1 69 70
M  V30 68 1 69 71
M  V30 69 1 73 74
M  V30 70 2 74 75
M  V30 71 1 74 76
M  V30 72 1 76 77
M  V30 73 1 77 78
M  V30 74 1 78 79
M  V30 75 1 79 80
M  V30 76 1 65 73
M  V30 77 1 66 80
M  V30 78 1 81 82
M  V30 79 1 82 83
M  V30 80 1 82 84
M  V30 81 2 84 85
M  V30 82 1 84 86
M  V30 83 1 86 87
M  V30 84 1 87 88
M  V30 85 1 88 89
M  V30 86 1 89 90
M  V30 87 1 90 91
M  V30 88 1 91 92
M  V30 89 1 92 93
M  V30 90 1 69 81
M  V30 91 1 94 95
M  V30 92 1 95 96
M  V30 93 1 95 97
M  V30 94 2 97 98
M  V30 95 1 97 99
M  V30 96 1 99 100
M  V30 97 1 100 101
M  V30 98 1 101 102
M  V30 99 1 102 103
M  V30 100 1 103 104
M  V30 101 1 104 105
M  V30 102 1 105 106
M  V30 103 1 106 107
M  V30 104 1 107 108
M  V30 105 1 108 109
M  V30 106 1 109 110
M  V30 107 1 110 111
M  V30 108 1 111 112
M  V30 109 1 112 113
M  V30 110 1 113 114
M  V30 111 1 114 115
M  V30 112 1 115 116
M  V30 113 1 116 117
M  V30 114 1 117 118
M  V30 115 1 118 119
M  V30 116 1 119 120
M  V30 117 1 120 121
M  V30 118 1 121 122
M  V30 119 1 122 123
M  V30 120 1 123 124
M  V30 121 1 124 125
M  V30 122 1 125 126
M  V30 123 1 126 127
M  V30 124 1 82 94
M  V30 125 1 72 95
M  V30 126 1 1 65
M  V30 127 1 129 130
M  V30 128 2 130 131
M  V30 129 1 130 132
M  V30 130 1 132 133
M  V30 131 1 132 134
M  V30 132 1 136 137
M  V30 133 2 137 138
M  V30 134 1 137 139
M  V30 135 1 139 140
M  V30 136 1 140 141
M  V30 137 1 141 142
M  V30 138 1 142 143
M  V30 139 1 128 136
M  V30 140 1 129 143
M  V30 141 1 144 145
M  V30 142 1 145 146
M  V30 143 1 145 147
M  V30 144 2 147 148
M  V30 145 1 147 149
M  V30 146 1 149 150
M  V30 147 1 150 151
M  V30 148 1 151 152
M  V30 149 1 152 153
M  V30 150 1 153 154
M  V30 151 1 154 155
M  V30 152 1 155 156
M  V30 153 1 132 144
M  V30 154 1 157 158
M  V30 155 1 158 159
M  V30 156 1 158 160
M  V30 157 2 160 161
M  V30 158 1 160 162
M  V30 159 1 162 163
M  V30 160 1 163 164
M  V30 161 1 164 165
M  V30 162 1 165 166
M  V30 163 1 166 167
M  V30 164 1 167 168
M  V30 165 1 168 169
M  V30 166 1 169 170
M  V30 167 1 170 171
M  V30 168 1 171 172
M  V30 169 1 172 173
M  V30 170 1 173 174
M  V30 171 1 174 175
M  V30 172 1 175 176
M  V30 173 1 176 177
M  V30 174 1 177 178
M  V30 175 1 178 179
M  V30 176 1 179 180
M  V30 177 1 180 181
M  V30 178 1 181 182
M  V30 179 1 182 183
M  V30 180 1 183 184
M  V30 181 1 184 185
M  V30 182 1 185 186
M  V30 183 1 186 187
M  V30 184 1 187 188
M  V30 185 1 188 189
M  V30 186 1 189 190
M  V30 187 1 145 157
M  V30 188 1 135 158
M  V30 189 1 1 128
M  V30 190 1 192 193
M  V30 191 2 193 194
M  V30 192 1 193 195
M  V30 193 1 195 196
M  V30 194 1 195 197
M  V30 195 1 199 200
M  V30 196 2 200 201
M  V30 197 1 200 202
M  V30 198 1 202 203
M  V30 199 1 203 204
M  V30 200 1 204 205
M  V30 201 1 205 206
M  V30 202 1 191 199
M  V30 203 1 192 206
M  V30 204 1 207 208
M  V30 205 1 208 209
M  V30 206 1 208 210
M  V30 207 2 210 211
M  V30 208 1 210 212
M  V30 209 1 212 213
M  V30 210 1 213 214
M  V30 211 1 214 215
M  V30 212 1 215 216
M  V30 213 1 216 217
M  V30 214 1 217 218
M  V30 215 1 218 219
M  V30 216 1 195 207
M  V30 217 1 220 221
M  V30 218 1 221 222
M  V30 219 1 221 223
M  V30 220 2 223 224
M  V30 221 1 223 225
M  V30 222 1 225 226
M  V30 223 1 226 227
M  V30 224 1 227 228
M  V30 225 1 228 229
M  V30 226 1 229 230
M  V30 227 1 230 231
M  V30 228 1 231 232
M  V30 229 1 232 233
M  V30 230 1 233 234
M  V30 231 1 234 235
M  V30 232 1 235 236
M  V30 233 1 236 237
M  V30 234 1 237 238
M  V30 235 1 238 239
M  V30 236 1 239 240
M  V30 237 1 240 241
M  V30 238 1 241 242
M  V30 239 1 242 243
M  V30 240 1 243 244
M  V30 241 1 244 245
M  V30 242 1 245 246
M  V30 243 1 246 247
M  V30 244 1 247 248
M  V30 245 1 248 249
M  V30 246 1 249 250
M  V30 247 1 250 251
M  V30 248 1 251 252
M  V30 249 1 252 253
M  V30 250 1 208 220
M  V30 251 1 198 221
M  V30 252 1 1 191
M  V30 END BOND
M  V30 BEGIN SGROUP
M  V30 1 SRU 0 ATOMS=(4 69 81 82 94) CBONDS=(2 90 124) -
M  V30 BRKXYZ=(9 0.6182 -8.6284 0 1.6180 -8.6284 0 0 0 0) BRKXYZ=(9 0.6181 -10-
M  V30 .3605 0 1.6179 -10.3605 0 0 0 0)
M  V30 2 SRU 0 ATOMS=(4 65 66 73 80) CBONDS=(2 76 77) -
M  V30 BRKXYZ=(9 0.6179 0.0313 0 1.6181 0.0313 0 0 0 0) BRKXYZ=(9 0.6179 -6.03-
M  V30 06 0 1.6181 -6.0306 0 0 0 0)
M  V30 3 SRU 0 ATOMS=(4 9 19 31 32) CBONDS=(2 61 62) -
M  V30 BRKXYZ=(9 -10.3228 1.7142 0 -10.3228 0.7144 0 0 0 0) BRKXYZ=(9 -12.0549-
M  V30  1.7142 0 -12.0549 0.7144 0 0 0 0)
M  V30 4 SRU 0 ATOMS=(4 6 18 19 31) CBONDS=(2 27 61) -
M  V30 BRKXYZ=(9 -8.5907 1.7142 0 -8.5907 0.7144 0 0 0 0) BRKXYZ=(9 -10.3228 1-
M  V30 .7142 0 -10.3228 0.7144 0 0 0 0)
M  V30 5 SRU 0 ATOMS=(4 2 3 10 17) CBONDS=(2 13 14) -
M  V30 BRKXYZ=(9 0.0690 1.7145 0 0.0690 0.7143 0 0 0 0) BRKXYZ=(9 -5.9930 1.71-
M  V30 45 0 -5.9930 0.7143 0 0 0 0)
M  V30 6 SRU 0 ATOMS=(4 198 208 220 221) CBONDS=(2 250 251) -
M  V30 BRKXYZ=(9 13.0588 1.7142 0 13.0588 0.7144 0 0 0 0) BRKXYZ=(9 14.7909 1.-
M  V30 7142 0 14.7909 0.7144 0 0 0 0)
M  V30 7 SRU 0 ATOMS=(4 195 207 208 220) CBONDS=(2 216 250) -
M  V30 BRKXYZ=(9 11.3268 1.7142 0 11.3268 0.7144 0 0 0 0) BRKXYZ=(9 13.0588 1.-
M  V30 7142 0 13.0588 0.7144 0 0 0 0)
M  V30 8 SRU 0 ATOMS=(4 191 192 199 206) CBONDS=(2 202 203) -
M  V30 BRKXYZ=(9 2.6670 1.7145 0 2.6670 0.7143 0 0 0 0) BRKXYZ=(9 8.7290 1.714-
M  V30 5 0 8.7290 0.7143 0 0 0 0)
M  V30 9 SRU 0 ATOMS=(4 135 145 157 158) CBONDS=(2 187 188) -
M  V30 BRKXYZ=(9 2.1179 13.2891 0 1.1181 13.2891 0 0 0 0) BRKXYZ=(9 2.1179 15.-
M  V30 0212 0 1.1181 15.0212 0 0 0 0)
M  V30 10 SRU 0 ATOMS=(4 132 144 145 157) CBONDS=(2 153 187) -
M  V30 BRKXYZ=(9 2.1178 11.5570 0 1.1180 11.5570 0 0 0 0) BRKXYZ=(9 2.1179 13.-
M  V30 2891 0 1.1181 13.2891 0 0 0 0)
M  V30 11 SRU 0 ATOMS=(4 128 129 136 143) CBONDS=(2 139 140) -
M  V30 BRKXYZ=(9 2.1181 2.8973 0 1.1179 2.8973 0 0 0 0) BRKXYZ=(9 2.1181 8.959-
M  V30 3 0 1.1179 8.9593 0 0 0 0)
M  V30 12 SRU 0 ATOMS=(4 72 82 94 95) CBONDS=(2 124 125) -
M  V30 BRKXYZ=(9 0.6181 -10.3605 0 1.6179 -10.3605 0 0 0 0) BRKXYZ=(9 0.6181 --
M  V30 12.0925 0 1.6179 -12.0925 0 0 0 0)
M  V30 END SGROUP
M  V30 END CTAB
M  END
>  <BIGSMILES_BRACKET_RECORDS_JSON>
{
  "records": [
    {
      "id": 0,
      "bracket_kind": "backbone",
      "pairing_id": "F9/fragments[0]",
      "group_id": "$a:2",
      "ru_midpoint": [
        1.118057690546126,
        -9.494435829231207
      ],
      "bond_midpoint": [
        1.1180764889126242,
        -8.62840298119056
      ],
      "orientation_vector": [
        -1.0,
        0.0
      ],
      "half_bracket_size": 0.49990016001536364,
      "bond": [
        68,
        80
      ],
      "fragment": "F9",
      "backbone": true,
      "suspended_anchor_atom": null,
      "suspended_reason": null,
      "source_label": "F9/fragments[0]",
      "marker_id": "0",
      "side": "left",
      "connection_group": "$a",
      "marker_type_index": 2
    },
    {
      "id": 1,
      "bracket_kind": "backbone",
      "pairing_id": "F9/fragments[0]",
      "group_id": "$a:2",
      "ru_midpoint": [
        1.118057690546126,
        -9.494435829231207
      ],
      "bond_midpoint": [
        1.1180388921796272,
        -10.360468677271855
      ],
      "orientation_vector": [
        -1.0,
        0.0
      ],
      "half_bracket_size": 0.49990016001536364,
      "bond": [
        81,
        93
      ],
      "fragment": "F9",
      "backbone": true,
      "suspended_anchor_atom": null,
      "suspended_reason": null,
      "source_label": "F9/fragments[0]",
      "marker_id": "14",
      "side": "right",
      "connection_group": "$a",
      "marker_type_index": 2
    },
    {
      "id": 2,
      "bracket_kind": "backbone",
      "pairing_id": "F8/fragments[0]",
      "group_id": ">1:4",
      "ru_midpoint": [
        1.1457445492229472,
        -2.999643479342528
      ],
      "bond_midpoint": [
        1.1179550409966077,
        0.0313342198075095
      ],
      "orientation_vector": [
        -1.0,
        0.0
      ],
      "half_bracket_size": 0.5001001599500269,
      "bond": [
        64,
        72
      ],
      "fragment": "F8",
      "backbone": true,
      "suspended_anchor_atom": null,
      "suspended_reason": null,
      "source_label": "F8/fragments[0]",
      "marker_id": "0",
      "side": "left",
      "connection_group": ">1",
      "marker_type_index": 4
    },
    {
      "id": 3,
      "bracket_kind": "backbone",
      "pairing_id": "F8/fragments[0]",
      "group_id": "<1:3",
      "ru_midpoint": [
        1.1457445492229472,
        -2.999643479342528
      ],
      "bond_midpoint": [
        1.1179782471576463,
        -6.030628765964392
      ],
      "orientation_vector": [
        -1.0,
        0.0
      ],
      "half_bracket_size": 0.5001001599500269,
      "bond": [
        65,
        79
      ],
      "fragment": "F8",
      "backbone": true,
      "suspended_anchor_atom": null,
      "suspended_reason": null,
      "source_label": "F8/fragments[0]",
      "marker_id": "9",
      "side": "right",
      "connection_group": "<1",
      "marker_type_index": 3
    },
    {
      "id": 4,
      "bracket_kind": "backbone",
      "pairing_id": "F7/fragments[0]",
      "group_id": "$a:2",
      "ru_midpoint": [
        -11.188851916453517,
        1.214315696374003
      ],
      "bond_midpoint": [
        -10.322790242261075,
        1.214296898007504
      ],
      "orientation_vector": [
        0.0,
        1.0
      ],
      "half_bracket_size": 0.4999001600153621,
      "bond": [
        18,
        30
      ],
      "fragment": "F7",
      "backbone": true,
      "suspended_anchor_atom": null,
      "suspended_reason": null,
      "source_label": "F7/fragments[0]",
      "marker_id": "0",
      "side": "left",
      "connection_group": "$a",
      "marker_type_index": 2
    },
    {
      "id": 5,
      "bracket_kind": "backbone",
      "pairing_id": "F7/fragments[0]",
      "group_id": "$a:2",
      "ru_midpoint": [
        -11.188851916453517,
        1.214315696374003
      ],
      "bond_midpoint": [
        -12.054870346755266,
        1.2143095328330187
      ],
      "orientation_vector": [
        0.0,
        1.0
      ],
      "half_bracket_size": 0.4999001600153621,
      "bond": [
        8,
        31
      ],
      "fragment": "F7",
      "backbone": true,
      "suspended_anchor_atom": null,
      "suspended_reason": null,
      "source_label": "F7/fragments[0]",
      "marker_id": "35",
      "side": "right",
      "connection_group": "$a",
      "marker_type_index": 2
    },
    {
      "id": 6,
      "bracket_kind": "backbone",
      "pairing_id": "F6/fragments[0]",
      "group_id": "$a:2",
      "ru_midpoint": [
        -9.456757394220425,
        1.214278099641005
      ],
      "bond_midpoint": [
        -8.590724546179777,
        1.214259301274506
      ],
      "orientation_vector": [
        0.0,
        1.0
      ],
      "half_bracket_size": 0.49990016001536364,
      "bond": [
        5,
        17
      ],
      "fragment": "F6",
      "backbone": true,
      "suspended_anchor_atom": null,
      "suspended_reason": null,
      "source_label": "F6/fragments[0]",
      "marker_id": "0",
      "side": "left",
      "connection_group": "$a",
      "marker_type_index": 2
    },
    {
      "id": 7,
      "bracket_kind": "backbone",
      "pairing_id": "F6/fragments[0]",
      "group_id": "$a:2",
      "ru_midpoint": [
        -9.456757394220425,
        1.214278099641005
      ],
      "bond_midpoint": [
        -10.322790242261075,
        1.214296898007504
      ],
      "orientation_vector": [
        0.0,
        1.0
      ],
      "half_bracket_size": 0.49990016001536364,
      "bond": [
        18,
        30
      ],
      "fragment": "F6",
      "backbone": true,
      "suspended_anchor_atom": null,
      "suspended_reason": null,
      "source_label": "F6/fragments[0]",
      "marker_id": "14",
      "side": "right",
      "connection_group": "$a",
      "marker_type_index": 2
    },
    {
      "id": 8,
      "bracket_kind": "backbone",
      "pairing_id": "F5/fragments[0]",
      "group_id": ">1:4",
      "ru_midpoint": [
        -2.9619650443317465,
        1.18659124096418
      ],
      "bond_midpoint": [
        0.06901265481829189,
        1.2143807491905179
      ],
      "orientation_vector": [
        0.0,
        1.0
      ],
      "half_bracket_size": 0.5001001599500269,
      "bond": [
        1,
        9
      ],
      "fragment": "F5",
      "backbone": true,
      "suspended_anchor_atom": null,
      "suspended_reason": null,
      "source_label": "F5/fragments[0]",
      "marker_id": "0",
      "side": "left",
      "connection_group": ">1",
      "marker_type_index": 4
    },
    {
      "id": 9,
      "bracket_kind": "backbone",
      "pairing_id": "F5/fragments[0]",
      "group_id": "<1:3",
      "ru_midpoint": [
        -2.9619650443317465,
        1.18659124096418
      ],
      "bond_midpoint": [
        -5.992950330953611,
        1.2143575430294824
      ],
      "orientation_vector": [
        0.0,
        1.0
      ],
      "half_bracket_size": 0.5001001599500269,
      "bond": [
        2,
        16
      ],
      "fragment": "F5",
      "backbone": true,
      "suspended_anchor_atom": null,
      "suspended_reason": null,
      "source_label": "F5/fragments[0]",
      "marker_id": "9",
      "side": "right",
      "connection_group": "<1",
      "marker_type_index": 3
    },
    {
      "id": 10,
      "bracket_kind": "backbone",
      "pairing_id": "F16/fragments[0]",
      "group_id": "$a:2",
      "ru_midpoint": [
        13.92487846335744,
        1.214315696374003
      ],
      "bond_midpoint": [
        13.058816789164997,
        1.214296898007504
      ],
      "orientation_vector": [
        0.0,
        1.0
      ],
      "half_bracket_size": 0.4999001600153621,
      "bond": [
        207,
        219
      ],
      "fragment": "F16",
      "backbone": true,
      "suspended_anchor_atom": null,
      "suspended_reason": null,
      "source_label": "F16/fragments[0]",
      "marker_id": "0",
      "side": "left",
      "connection_group": "$a",
      "marker_type_index": 2
    },
    {
      "id": 11,
      "bracket_kind": "backbone",
      "pairing_id": "F16/fragments[0]",
      "group_id": "$a:2",
      "ru_midpoint": [
        13.92487846335744,
        1.214315696374003
      ],
      "bond_midpoint": [
        14.790896893659188,
        1.2143095328330187
      ],
      "orientation_vector": [
        0.0,
        1.0
      ],
      "half_bracket_size": 0.4999001600153621,
      "bond": [
        197,
        220
      ],
      "fragment": "F16",
      "backbone": true,
      "suspended_anchor_atom": null,
      "suspended_reason": null,
      "source_label": "F16/fragments[0]",
      "marker_id": "35",
      "side": "right",
      "connection_group": "$a",
      "marker_type_index": 2
    },
    {
      "id": 12,
      "bracket_kind": "backbone",
      "pairing_id": "F15/fragments[0]",
      "group_id": "$a:2",
      "ru_midpoint": [
        12.192783941124347,
        1.214278099641005
      ],
      "bond_midpoint": [
        11.326751093083699,
        1.214259301274506
      ],
      "orientation_vector": [
        0.0,
        1.0
      ],
      "half_bracket_size": 0.49990016001536364,
      "bond": [
        194,
        206
      ],
      "fragment": "F15",
      "backbone": true,
      "suspended_anchor_atom": null,
      "suspended_reason": null,
      "source_label": "F15/fragments[0]",
      "marker_id": "0",
      "side": "left",
      "connection_group": "$a",
      "marker_type_index": 2
    },
    {
      "id": 13,
      "bracket_kind": "backbone",
      "pairing_id": "F15/fragments[0]",
      "group_id": "$a:2",
      "ru_midpoint": [
        12.192783941124347,
        1.214278099641005
      ],
      "bond_midpoint": [
        13.058816789164997,
        1.214296898007504
      ],
      "orientation_vector": [
        0.0,
        1.0
      ],
      "half_bracket_size": 0.49990016001536364,
      "bond": [
        207,
        219
      ],
      "fragment": "F15",
      "backbone": true,
      "suspended_anchor_atom": null,
      "suspended_reason": null,
      "source_label": "F15/fragments[0]",
      "marker_id": "14",
      "side": "right",
      "connection_group": "$a",
      "marker_type_index": 2
    },
    {
      "id": 14,
      "bracket_kind": "backbone",
      "pairing_id": "F14/fragments[0]",
      "group_id": ">1:4",
      "ru_midpoint": [
        5.6979915912356685,
        1.18659124096418
      ],
      "bond_midpoint": [
        2.66701389208563,
        1.2143807491905179
      ],
      "orientation_vector": [
        0.0,
        1.0
      ],
      "half_bracket_size": 0.5001001599500269,
      "bond": [
        190,
        198
      ],
      "fragment": "F14",
      "backbone": true,
      "suspended_anchor_atom": null,
      "suspended_reason": null,
      "source_label": "F14/fragments[0]",
      "marker_id": "0",
      "side": "left",
      "connection_group": ">1",
      "marker_type_index": 4
    },
    {
      "id": 15,
      "bracket_kind": "backbone",
      "pairing_id": "F14/fragments[0]",
      "group_id": "<1:3",
      "ru_midpoint": [
        5.6979915912356685,
        1.18659124096418
      ],
      "bond_midpoint": [
        8.728976877857534,
        1.2143575430294824
      ],
      "orientation_vector": [
        0.0,
        1.0
      ],
      "half_bracket_size": 0.5001001599500269,
      "bond": [
        191,
        205
      ],
      "fragment": "F14",
      "backbone": true,
      "suspended_anchor_atom": null,
      "suspended_reason": null,
      "source_label": "F14/fragments[0]",
      "marker_id": "9",
      "side": "right",
      "connection_group": "<1",
      "marker_type_index": 3
    },
    {
      "id": 16,
      "bracket_kind": "backbone",
      "pairing_id": "F13/fragments[0]",
      "group_id": "$a:2",
      "ru_midpoint": [
        1.617977816116319,
        14.155173481442734
      ],
      "bond_midpoint": [
        1.6179590177498209,
        13.289111807250293
      ],
      "orientation_vector": [
        1.0,
        0.0
      ],
      "half_bracket_size": 0.4999001600153621,
      "bond": [
        144,
        156
      ],
      "fragment": "F13",
      "backbone": true,
      "suspended_anchor_atom": null,
      "suspended_reason": null,
      "source_label": "F13/fragments[0]",
      "marker_id": "0",
      "side": "left",
      "connection_group": "$a",
      "marker_type_index": 2
    },
    {
      "id": 17,
      "bracket_kind": "backbone",
      "pairing_id": "F13/fragments[0]",
      "group_id": "$a:2",
      "ru_midpoint": [
        1.617977816116319,
        14.155173481442734
      ],
      "bond_midpoint": [
        1.6179716525753338,
        15.021191911744484
      ],
      "orientation_vector": [
        1.0,
        0.0
      ],
      "half_bracket_size": 0.4999001600153621,
      "bond": [
        134,
        157
      ],
      "fragment": "F13",
      "backbone": true,
      "suspended_anchor_atom": null,
      "suspended_reason": null,
      "source_label": "F13/fragments[0]",
      "marker_id": "35",
      "side": "right",
      "connection_group": "$a",
      "marker_type_index": 2
    },
    {
      "id": 18,
      "bracket_kind": "backbone",
      "pairing_id": "F12/fragments[0]",
      "group_id": "$a:2",
      "ru_midpoint": [
        1.6179402193833228,
        12.423078959209644
      ],
      "bond_midpoint": [
        1.6179214210168245,
        11.557046111168995
      ],
      "orientation_vector": [
        1.0,
        0.0
      ],
      "half_bracket_size": 0.49990016001536364,
      "bond": [
        131,
        143
      ],
      "fragment": "F12",
      "backbone": true,
      "suspended_anchor_atom": null,
      "suspended_reason": null,
      "source_label": "F12/fragments[0]",
      "marker_id": "0",
      "side": "left",
      "connection_group": "$a",
      "marker_type_index": 2
    },
    {
      "id": 19,
      "bracket_kind": "backbone",
      "pairing_id": "F12/fragments[0]",
      "group_id": "$a:2",
      "ru_midpoint": [
        1.6179402193833228,
        12.423078959209644
      ],
      "bond_midpoint": [
        1.6179590177498209,
        13.289111807250293
      ],
      "orientation_vector": [
        1.0,
        0.0
      ],
      "half_bracket_size": 0.49990016001536364,
      "bond": [
        144,
        156
      ],
      "fragment": "F12",
      "backbone": true,
      "suspended_anchor_atom": null,
      "suspended_reason": null,
      "source_label": "F12/fragments[0]",
      "marker_id": "14",
      "side": "right",
      "connection_group": "$a",
      "marker_type_index": 2
    },
    {
      "id": 20,
      "bracket_kind": "backbone",
      "pairing_id": "F11/fragments[0]",
      "group_id": ">1:4",
      "ru_midpoint": [
        1.5902533607065048,
        5.928286609320965
      ],
      "bond_midpoint": [
        1.618042868932846,
        2.897308910170926
      ],
      "orientation_vector": [
        1.0,
        0.0
      ],
      "half_bracket_size": 0.5001001599500269,
      "bond": [
        127,
        135
      ],
      "fragment": "F11",
      "backbone": true,
      "suspended_anchor_atom": null,
      "suspended_reason": null,
      "source_label": "F11/fragments[0]",
      "marker_id": "0",
      "side": "left",
      "connection_group": ">1",
      "marker_type_index": 4
    },
    {
      "id": 21,
      "bracket_kind": "backbone",
      "pairing_id": "F11/fragments[0]",
      "group_id": "<1:3",
      "ru_midpoint": [
        1.5902533607065048,
        5.928286609320965
      ],
      "bond_midpoint": [
        1.618019662771804,
        8.95927189594283
      ],
      "orientation_vector": [
        1.0,
        0.0
      ],
      "half_bracket_size": 0.5001001599500269,
      "bond": [
        128,
        142
      ],
      "fragment": "F11",
      "backbone": true,
      "suspended_anchor_atom": null,
      "suspended_reason": null,
      "source_label": "F11/fragments[0]",
      "marker_id": "9",
      "side": "right",
      "connection_group": "<1",
      "marker_type_index": 3
    },
    {
      "id": 22,
      "bracket_kind": "backbone",
      "pairing_id": "F10/fragments[0]",
      "group_id": "$a:2",
      "ru_midpoint": [
        1.1180200938131288,
        -11.226530351464298
      ],
      "bond_midpoint": [
        1.1180388921796272,
        -10.360468677271855
      ],
      "orientation_vector": [
        -1.0,
        0.0
      ],
      "half_bracket_size": 0.4999001600153621,
      "bond": [
        81,
        93
      ],
      "fragment": "F10",
      "backbone": true,
      "suspended_anchor_atom": null,
      "suspended_reason": null,
      "source_label": "F10/fragments[0]",
      "marker_id": "0",
      "side": "left",
      "connection_group": "$a",
      "marker_type_index": 2
    },
    {
      "id": 23,
      "bracket_kind": "backbone",
      "pairing_id": "F10/fragments[0]",
      "group_id": "$a:2",
      "ru_midpoint": [
        1.1180200938131288,
        -11.226530351464298
      ],
      "bond_midpoint": [
        1.118026257354113,
        -12.092548781766046
      ],
      "orientation_vector": [
        -1.0,
        0.0
      ],
      "half_bracket_size": 0.4999001600153621,
      "bond": [
        71,
        94
      ],
      "fragment": "F10",
      "backbone": true,
      "suspended_anchor_atom": null,
      "suspended_reason": null,
      "source_label": "F10/fragments[0]",
      "marker_id": "35",
      "side": "right",
      "connection_group": "$a",
      "marker_type_index": 2
    }
  ]
}
