
     RDKit          2D

  0  0  0  0  0  0  0  0  0  0999 V3000
M  V30 BEGIN CTAB
M  V30 COUNTS 97 96 18 0 0
M  V30 BEGIN ATOM
M  V30 1 H -12.067698 -0.025850 0.000000 0
M  V30 2 H 10.408443 -0.025852 0.000000 0
M  V30 3 C -11.201715 0.474051 0.000000 0
M  V30 4 O -11.201706 1.474053 0.000000 0
M  V30 5 C -10.335732 -0.025850 0.000000 0
M  V30 6 C -9.469712 0.474051 0.000000 0
M  V30 7 C -8.603613 -0.025850 0.000000 0
M  V30 8 C -7.737277 0.474051 0.000000 0
M  V30 9 C -6.871178 -0.025850 0.000000 0
M  V30 10 C -6.005158 0.474051 0.000000 0
M  V30 11 C -5.139175 -0.025850 0.000000 0
M  V30 12 O -5.139184 -1.025852 0.000000 0
M  V30 13 C 3.520209 2.974086 0.000000 0
M  V30 14 C 2.654267 3.474059 0.000000 0
M  V30 15 O 1.788224 2.974086 0.000000 0
M  V30 16 C 0.922167 3.474059 0.000000 0
M  V30 17 C 3.520209 1.974086 0.000000 0
M  V30 18 O 2.654208 1.474015 0.000000 0
M  V30 19 C 2.654481 0.473969 0.000000 0
M  V30 20 O 4.762961 3.474059 0.000000 0
M  V30 21 C 6.005764 2.974086 0.000000 0
M  V30 22 C 6.005764 1.974086 0.000000 0
M  V30 23 O 5.139762 1.474153 0.000000 0
M  V30 24 C 5.139762 0.474151 0.000000 0
M  V30 25 C 6.871821 3.474059 0.000000 0
M  V30 26 O 7.737800 2.974086 0.000000 0
M  V30 27 C 8.603741 3.474059 0.000000 0
M  V30 28 C 0.922167 4.474059 0.000000 0
M  V30 29 O 1.422267 5.339940 0.000000 0
M  V30 30 C 1.422320 8.803748 0.000000 0
M  V30 31 C 0.922220 9.669637 0.000000 0
M  V30 32 N 1.422320 10.535633 0.000000 0
M  V30 33 R 0.922220 11.401637 0.000000 3
M  V30 34 C 0.922183 6.205917 0.000000 0
M  V30 35 C 1.422283 7.071913 0.000000 0
M  V30 36 O 0.922183 7.937802 0.000000 0
M  V30 37 C 1.789167 3.972367 0.000000 0
M  V30 38 O 2.655047 3.472267 0.000000 0
M  V30 39 C 6.118855 3.472214 0.000000 0
M  V30 40 C 6.984744 3.972314 0.000000 0
M  V30 41 N 7.850740 3.472214 0.000000 0
M  V30 42 R 8.716744 3.972314 0.000000 3
M  V30 43 C 3.521024 3.972351 0.000000 0
M  V30 44 C 4.387020 3.472251 0.000000 0
M  V30 45 O 5.252909 3.972351 0.000000 0
M  V30 46 C 1.788481 -0.026102 0.000000 0
M  V30 47 O 0.922600 0.473998 0.000000 0
M  V30 48 C -2.541208 0.474051 0.000000 0
M  V30 49 C -3.407096 -0.026049 0.000000 0
M  V30 50 N -4.273092 0.474051 0.000000 0
M  V30 51 C 0.056623 -0.026086 0.000000 0
M  V30 52 C -0.809373 0.474014 0.000000 0
M  V30 53 O -1.675262 -0.026086 0.000000 0
M  V30 54 C 3.520581 -0.025906 0.000000 0
M  V30 55 O 4.386462 0.474195 0.000000 0
M  V30 56 C 7.850270 0.474248 0.000000 0
M  V30 57 C 8.716158 -0.025852 0.000000 0
M  V30 58 N 9.562301 0.474248 0.000000 0
M  V30 59 C 5.252439 -0.025890 0.000000 0
M  V30 60 C 6.118435 0.474211 0.000000 0
M  V30 61 O 6.984324 -0.025890 0.000000 0
M  V30 62 C 4.273760 -0.025782 0.000000 0
M  V30 63 O 3.407879 0.474318 0.000000 0
M  V30 64 C -0.055928 0.474372 0.000000 0
M  V30 65 C -0.921817 -0.025728 0.000000 0
M  V30 66 N -1.787813 0.474372 0.000000 0
M  V30 67 R -2.653818 -0.025728 0.000000 3
M  V30 68 C 2.541902 -0.025766 0.000000 0
M  V30 69 C 1.675906 0.474334 0.000000 0
M  V30 70 O 0.810017 -0.025766 0.000000 0
M  V30 71 C 6.005763 -0.025718 0.000000 0
M  V30 72 O 6.871644 0.474382 0.000000 0
M  V30 73 C 10.335452 0.474436 0.000000 0
M  V30 74 C 11.201340 -0.025664 0.000000 0
M  V30 75 N 12.067336 0.474436 0.000000 0
M  V30 76 R 12.933341 -0.025664 0.000000 3
M  V30 77 C 7.737621 -0.025702 0.000000 0
M  V30 78 C 8.603617 0.474398 0.000000 0
M  V30 79 O 9.469506 -0.025702 0.000000 0
M  V30 80 C 8.603741 4.474059 0.000000 0
M  V30 81 O 9.103841 5.339940 0.000000 0
M  V30 82 C 9.103895 8.803748 0.000000 0
M  V30 83 C 8.603795 9.669637 0.000000 0
M  V30 84 N 9.103895 10.535633 0.000000 0
M  V30 85 R 8.603795 11.401637 0.000000 3
M  V30 86 C 8.603757 6.205917 0.000000 0
M  V30 87 C 9.103857 7.071913 0.000000 0
M  V30 88 O 8.603757 7.937802 0.000000 0
M  V30 89 C 8.601741 2.474061 0.000000 0
M  V30 90 O 7.735860 2.974161 0.000000 0
M  V30 91 C 4.272053 2.974215 0.000000 0
M  V30 92 C 3.406164 2.474115 0.000000 0
M  V30 93 N 2.540168 2.974215 0.000000 0
M  V30 94 R 1.674163 2.474115 0.000000 3
M  V30 95 C 6.869884 2.474077 0.000000 0
M  V30 96 C 6.003887 2.974177 0.000000 0
M  V30 97 O 5.137999 2.474077 0.000000 0
M  V30 END ATOM
M  V30 BEGIN BOND
M  V30 1 2 3 4
M  V30 2 1 3 5
M  V30 3 1 5 6
M  V30 4 1 6 7
M  V30 5 1 7 8
M  V30 6 1 8 9
M  V30 7 1 9 10
M  V30 8 1 10 11
M  V30 9 2 11 12
M  V30 10 1 13 14
M  V30 11 1 14 15
M  V30 12 1 15 16
M  V30 13 1 13 17
M  V30 14 1 17 18
M  V30 15 1 18 19
M  V30 16 1 13 20
M  V30 17 1 20 21
M  V30 18 1 21 22
M  V30 19 1 22 23
M  V30 20 1 23 24
M  V30 21 1 21 25
M  V30 22 1 25 26
M  V30 23 1 26 27
M  V30 24 1 28 29
M  V30 25 1 30 31
M  V30 26 1 31 32
M  V30 27 1 32 33
M  V30 28 1 34 35
M  V30 29 1 35 36
M  V30 30 1 30 36
M  V30 31 1 29 34
M  V30 32 1 16 28
M  V30 33 1 37 38
M  V30 34 1 39 40
M  V30 35 1 40 41
M  V30 36 1 41 42
M  V30 37 1 43 44
M  V30 38 1 44 45
M  V30 39 1 39 45
M  V30 40 1 38 43
M  V30 41 1 16 37
M  V30 42 1 46 47
M  V30 43 1 48 49
M  V30 44 1 49 50
M  V30 45 1 51 52
M  V30 46 1 52 53
M  V30 47 1 48 53
M  V30 48 1 47 51
M  V30 49 1 19 46
M  V30 50 1 54 55
M  V30 51 1 56 57
M  V30 52 1 57 58
M  V30 53 1 59 60
M  V30 54 1 60 61
M  V30 55 1 56 61
M  V30 56 1 55 59
M  V30 57 1 19 54
M  V30 58 1 62 63
M  V30 59 1 64 65
M  V30 60 1 65 66
M  V30 61 1 66 67
M  V30 62 1 68 69
M  V30 63 1 69 70
M  V30 64 1 64 70
M  V30 65 1 63 68
M  V30 66 1 24 62
M  V30 67 1 71 72
M  V30 68 1 73 74
M  V30 69 1 74 75
M  V30 70 1 75 76
M  V30 71 1 77 78
M  V30 72 1 78 79
M  V30 73 1 73 79
M  V30 74 1 72 77
M  V30 75 1 24 71
M  V30 76 1 80 81
M  V30 77 1 82 83
M  V30 78 1 83 84
M  V30 79 1 84 85
M  V30 80 1 86 87
M  V30 81 1 87 88
M  V30 82 1 82 88
M  V30 83 1 81 86
M  V30 84 1 27 80
M  V30 85 1 89 90
M  V30 86 1 91 92
M  V30 87 1 92 93
M  V30 88 1 93 94
M  V30 89 1 95 96
M  V30 90 1 96 97
M  V30 91 1 91 97
M  V30 92 1 90 95
M  V30 93 1 27 89
M  V30 94 1 11 50
M  V30 95 1 1 3
M  V30 96 1 2 58
M  V30 END BOND
M  V30 BEGIN SGROUP
M  V30 1 SRU 0 ATOMS=(4 90 91 95 97) CBONDS=(2 91 92) -
M  V30 BRKXYZ=(9 7.3029 3.2242 0 7.3029 2.2240 0 0 0 0) BRKXYZ=(9 4.7050 3.224-
M  V30 2 0 4.7050 2.2240 0 0 0 0)
M  V30 2 SRU 0 ATOMS=(4 81 82 86 88) CBONDS=(2 82 83) -
M  V30 BRKXYZ=(9 9.3539 5.7729 0 8.3537 5.7729 0 0 0 0) BRKXYZ=(9 9.3539 8.370-
M  V30 8 0 8.3537 8.3708 0 0 0 0)
M  V30 3 SRU 0 ATOMS=(4 72 73 77 79) CBONDS=(2 73 74) -
M  V30 BRKXYZ=(9 7.3046 0.7244 0 7.3046 -0.2758 0 0 0 0) BRKXYZ=(9 9.9025 0.72-
M  V30 45 0 9.9025 -0.2757 0 0 0 0)
M  V30 4 SRU 0 ATOMS=(4 63 64 68 70) CBONDS=(2 64 65) -
M  V30 BRKXYZ=(9 2.9749 0.7244 0 2.9749 -0.2758 0 0 0 0) BRKXYZ=(9 0.3770 0.72-
M  V30 44 0 0.3770 -0.2758 0 0 0 0)
M  V30 5 SRU 0 ATOMS=(4 55 56 59 61) CBONDS=(2 55 56) -
M  V30 BRKXYZ=(9 4.8195 0.7243 0 4.8195 -0.2759 0 0 0 0) BRKXYZ=(9 7.4173 0.72-
M  V30 43 0 7.4173 -0.2759 0 0 0 0)
M  V30 6 SRU 0 ATOMS=(4 47 48 51 53) CBONDS=(2 47 48) -
M  V30 BRKXYZ=(9 0.4896 0.7241 0 0.4896 -0.2761 0 0 0 0) BRKXYZ=(9 -2.1082 0.7-
M  V30 241 0 -2.1082 -0.2761 0 0 0 0)
M  V30 7 SRU 0 ATOMS=(4 38 39 43 45) CBONDS=(2 39 40) -
M  V30 BRKXYZ=(9 3.0880 3.2222 0 3.0880 4.2224 0 0 0 0) BRKXYZ=(9 5.6859 3.222-
M  V30 2 0 5.6859 4.2224 0 0 0 0)
M  V30 8 SRU 0 ATOMS=(4 29 30 34 36) CBONDS=(2 30 31) -
M  V30 BRKXYZ=(9 1.6723 5.7729 0 0.6721 5.7729 0 0 0 0) BRKXYZ=(9 1.6724 8.370-
M  V30 8 0 0.6722 8.3708 0 0 0 0)
M  V30 9 SRU 0 ATOMS=(4 1 3 11 50) CBONDS=(2 94 95) -
M  V30 BRKXYZ=(9 -11.6347 -0.2758 0 -11.6347 0.7240 0 0 0 0) BRKXYZ=(9 -4.7061-
M  V30  -0.2758 0 -4.7061 0.7240 0 0 0 0)
M  V30 10 SRU 0 ATOMS=(4 1 3 75 76) CBONDS=(2 70 95) -
M  V30 BRKXYZ=(9 -8.2206 -11.7252 0 -15.0488 12.1734 0 0 0 0) BRKXYZ=(9 15.914-
M  V30 4 -11.7249 0 9.0862 12.1737 0 0 0 0)
M  V30 11 SRU 0 ATOMS=(2 32 33) CBONDS=(1 27) -
M  V30 BRKXYZ=(9 1.6053 11.2187 0 0.7393 10.7186 0 0 0 0)
M  V30 12 SRU 0 ATOMS=(2 41 42) CBONDS=(1 36) -
M  V30 BRKXYZ=(9 8.5338 3.2893 0 8.0337 4.1553 0 0 0 0)
M  V30 13 SRU 0 ATOMS=(2 11 50) CBONDS=(1 94) -
M  V30 BRKXYZ=(9 -4.9562 0.6571 0 -4.4561 -0.2089 0 0 0 0)
M  V30 14 SRU 0 ATOMS=(2 2 58) CBONDS=(1 96) -
M  V30 BRKXYZ=(9 9.7353 -0.2088 0 10.2354 0.6572 0 0 0 0)
M  V30 15 SRU 0 ATOMS=(2 66 67) CBONDS=(1 61) -
M  V30 BRKXYZ=(9 -2.4709 0.6573 0 -1.9708 -0.2087 0 0 0 0)
M  V30 16 SRU 0 ATOMS=(2 75 76) CBONDS=(1 70) -
M  V30 BRKXYZ=(9 12.2503 -0.2086 0 12.7504 0.6574 0 0 0 0)
M  V30 17 SRU 0 ATOMS=(2 84 85) CBONDS=(1 79) -
M  V30 BRKXYZ=(9 9.2868 11.2187 0 8.4208 10.7186 0 0 0 0)
M  V30 18 SRU 0 ATOMS=(2 93 94) CBONDS=(1 88) -
M  V30 BRKXYZ=(9 1.8571 3.1572 0 2.3572 2.2912 0 0 0 0)
M  V30 END SGROUP
M  V30 END CTAB
M  END
>  <BIGSMILES_BRACKET_RECORDS_JSON>
{
  "records": [
    {
      "id": 0,
      "bracket_kind": "backbone",
      "pairing_id": "F17/fragments[0]",
      "group_id": ">1:4",
      "ru_midpoint": [
        6.003923199859379,
        2.6407773756502806
      ],
      "bond_midpoint": [
        7.3028719277221,
        2.7241194010901153
      ],
      "orientation_vector": [
        0.0,
        1.0
      ],
      "half_bracket_size": 0.5001001599500253,
      "bond": [
        89,
        94
      ],
      "fragment": "F17",
      "backbone": true,
      "suspended_anchor_atom": null,
      "suspended_reason": null,
      "source_label": "F17/fragments[0]",
      "marker_id": "0",
      "side": "left",
      "connection_group": ">1",
      "marker_type_index": 4
    },
    {
      "id": 1,
      "bracket_kind": "backbone",
      "pairing_id": "F17/fragments[0]",
      "group_id": "<1:3",
      "ru_midpoint": [
        6.003923199859379,
        2.6407773756502806
      ],
      "bond_midpoint": [
        4.705025675824592,
        2.724146208195963
      ],
      "orientation_vector": [
        0.0,
        1.0
      ],
      "half_bracket_size": 0.5001001599500253,
      "bond": [
        90,
        96
      ],
      "fragment": "F17",
      "backbone": true,
      "suspended_anchor_atom": null,
      "suspended_reason": null,
      "source_label": "F17/fragments[0]",
      "marker_id": "4",
      "side": "right",
      "connection_group": "<1",
      "marker_type_index": 3
    },
    {
      "id": 2,
      "bracket_kind": "backbone",
      "pairing_id": "F16/fragments[0]",
      "group_id": ">1:4",
      "ru_midpoint": [
        8.770457113513196,
        7.0718771777947325
      ],
      "bond_midpoint": [
        8.853799138953029,
        5.772928449932013
      ],
      "orientation_vector": [
        1.0,
        0.0
      ],
      "half_bracket_size": 0.5001001599500253,
      "bond": [
        80,
        85
      ],
      "fragment": "F16",
      "backbone": true,
      "suspended_anchor_atom": null,
      "suspended_reason": null,
      "source_label": "F16/fragments[0]",
      "marker_id": "0",
      "side": "left",
      "connection_group": ">1",
      "marker_type_index": 4
    },
    {
      "id": 3,
      "bracket_kind": "backbone",
      "pairing_id": "F16/fragments[0]",
      "group_id": "<1:3",
      "ru_midpoint": [
        8.770457113513196,
        7.0718771777947325
      ],
      "bond_midpoint": [
        8.853825946058876,
        8.370774701829522
      ],
      "orientation_vector": [
        1.0,
        0.0
      ],
      "half_bracket_size": 0.5001001599500253,
      "bond": [
        81,
        87
      ],
      "fragment": "F16",
      "backbone": true,
      "suspended_anchor_atom": null,
      "suspended_reason": null,
      "source_label": "F16/fragments[0]",
      "marker_id": "4",
      "side": "right",
      "connection_group": "<1",
      "marker_type_index": 3
    },
    {
      "id": 4,
      "bracket_kind": "backbone",
      "pairing_id": "F15/fragments[0]",
      "group_id": ">1:4",
      "ru_midpoint": [
        8.60358111786509,
        0.1409983160270487
      ],
      "bond_midpoint": [
        7.30463239000237,
        0.22434034146688342
      ],
      "orientation_vector": [
        0.0,
        1.0
      ],
      "half_bracket_size": 0.5001001599500253,
      "bond": [
        71,
        76
      ],
      "fragment": "F15",
      "backbone": true,
      "suspended_anchor_atom": null,
      "suspended_reason": null,
      "source_label": "F15/fragments[0]",
      "marker_id": "0",
      "side": "left",
      "connection_group": ">1",
      "marker_type_index": 4
    },
    {
      "id": 5,
      "bracket_kind": "backbone",
      "pairing_id": "F15/fragments[0]",
      "group_id": "<1:3",
      "ru_midpoint": [
        8.60358111786509,
        0.1409983160270487
      ],
      "bond_midpoint": [
        9.90247864189988,
        0.224367148572731
      ],
      "orientation_vector": [
        0.0,
        1.0
      ],
      "half_bracket_size": 0.5001001599500253,
      "bond": [
        72,
        78
      ],
      "fragment": "F15",
      "backbone": true,
      "suspended_anchor_atom": null,
      "suspended_reason": null,
      "source_label": "F15/fragments[0]",
      "marker_id": "4",
      "side": "right",
      "connection_group": "<1",
      "marker_type_index": 3
    },
    {
      "id": 6,
      "bracket_kind": "backbone",
      "pairing_id": "F14/fragments[0]",
      "group_id": ">1:4",
      "ru_midpoint": [
        1.6759420660680326,
        0.14093431615504937
      ],
      "bond_midpoint": [
        2.9748907939307525,
        0.22427634159488408
      ],
      "orientation_vector": [
        0.0,
        1.0
      ],
      "half_bracket_size": 0.5001001599500253,
      "bond": [
        62,
        67
      ],
      "fragment": "F14",
      "backbone": true,
      "suspended_anchor_atom": null,
      "suspended_reason": null,
      "source_label": "F14/fragments[0]",
      "marker_id": "0",
      "side": "left",
      "connection_group": ">1",
      "marker_type_index": 4
    },
    {
      "id": 7,
      "bracket_kind": "backbone",
      "pairing_id": "F14/fragments[0]",
      "group_id": "<1:3",
      "ru_midpoint": [
        1.6759420660680326,
        0.14093431615504937
      ],
      "bond_midpoint": [
        0.3770445420332438,
        0.22430314870073165
      ],
      "orientation_vector": [
        0.0,
        1.0
      ],
      "half_bracket_size": 0.5001001599500253,
      "bond": [
        63,
        69
      ],
      "fragment": "F14",
      "backbone": true,
      "suspended_anchor_atom": null,
      "suspended_reason": null,
      "source_label": "F14/fragments[0]",
      "marker_id": "4",
      "side": "right",
      "connection_group": "<1",
      "marker_type_index": 3
    },
    {
      "id": 8,
      "bracket_kind": "backbone",
      "pairing_id": "F13/fragments[0]",
      "group_id": ">1:4",
      "ru_midpoint": [
        6.118399140604137,
        0.1408104611613803
      ],
      "bond_midpoint": [
        4.819450412741418,
        0.224152486601215
      ],
      "orientation_vector": [
        0.0,
        1.0
      ],
      "half_bracket_size": 0.5001001599500253,
      "bond": [
        54,
        58
      ],
      "fragment": "F13",
      "backbone": true,
      "suspended_anchor_atom": null,
      "suspended_reason": null,
      "source_label": "F13/fragments[0]",
      "marker_id": "0",
      "side": "left",
      "connection_group": ">1",
      "marker_type_index": 4
    },
    {
      "id": 9,
      "bracket_kind": "backbone",
      "pairing_id": "F13/fragments[0]",
      "group_id": "<1:3",
      "ru_midpoint": [
        6.118399140604137,
        0.1408104611613803
      ],
      "bond_midpoint": [
        7.417296664638927,
        0.22417929370706258
      ],
      "orientation_vector": [
        0.0,
        1.0
      ],
      "half_bracket_size": 0.5001001599500253,
      "bond": [
        55,
        60
      ],
      "fragment": "F13",
      "backbone": true,
      "suspended_anchor_atom": null,
      "suspended_reason": null,
      "source_label": "F13/fragments[0]",
      "marker_id": "4",
      "side": "right",
      "connection_group": "<1",
      "marker_type_index": 3
    },
    {
      "id": 10,
      "bracket_kind": "backbone",
      "pairing_id": "F12/fragments[0]",
      "group_id": ">1:4",
      "ru_midpoint": [
        -0.809337092274531,
        0.14061364468741377
      ],
      "bond_midpoint": [
        0.4896116355881883,
        0.22395567012724849
      ],
      "orientation_vector": [
        0.0,
        1.0
      ],
      "half_bracket_size": 0.5001001599500253,
      "bond": [
        46,
        50
      ],
      "fragment": "F12",
      "backbone": true,
      "suspended_anchor_atom": null,
      "suspended_reason": null,
      "source_label": "F12/fragments[0]",
      "marker_id": "0",
      "side": "left",
      "connection_group": ">1",
      "marker_type_index": 4
    },
    {
      "id": 11,
      "bracket_kind": "backbone",
      "pairing_id": "F12/fragments[0]",
      "group_id": "<1:3",
      "ru_midpoint": [
        -0.809337092274531,
        0.14061364468741377
      ],
      "bond_midpoint": [
        -2.1082346163093195,
        0.22398247723309606
      ],
      "orientation_vector": [
        0.0,
        1.0
      ],
      "half_bracket_size": 0.5001001599500253,
      "bond": [
        47,
        52
      ],
      "fragment": "F12",
      "backbone": true,
      "suspended_anchor_atom": null,
      "suspended_reason": null,
      "source_label": "F12/fragments[0]",
      "marker_id": "4",
      "side": "right",
      "connection_group": "<1",
      "marker_type_index": 3
    },
    {
      "id": 12,
      "bracket_kind": "backbone",
      "pairing_id": "F11/fragments[0]",
      "group_id": ">1:4",
      "ru_midpoint": [
        4.386984541616756,
        3.8056514017425447
      ],
      "bond_midpoint": [
        3.0880358137540362,
        3.7223093763027095
      ],
      "orientation_vector": [
        0.0,
        -1.0
      ],
      "half_bracket_size": 0.5001001599500253,
      "bond": [
        37,
        42
      ],
      "fragment": "F11",
      "backbone": true,
      "suspended_anchor_atom": null,
      "suspended_reason": null,
      "source_label": "F11/fragments[0]",
      "marker_id": "0",
      "side": "left",
      "connection_group": ">1",
      "marker_type_index": 4
    },
    {
      "id": 13,
      "bracket_kind": "backbone",
      "pairing_id": "F11/fragments[0]",
      "group_id": "<1:3",
      "ru_midpoint": [
        4.386984541616756,
        3.8056514017425447
      ],
      "bond_midpoint": [
        5.685882065651544,
        3.7222825691968624
      ],
      "orientation_vector": [
        0.0,
        -1.0
      ],
      "half_bracket_size": 0.5001001599500253,
      "bond": [
        38,
        44
      ],
      "fragment": "F11",
      "backbone": true,
      "suspended_anchor_atom": null,
      "suspended_reason": null,
      "source_label": "F11/fragments[0]",
      "marker_id": "4",
      "side": "right",
      "connection_group": "<1",
      "marker_type_index": 3
    },
    {
      "id": 14,
      "bracket_kind": "backbone",
      "pairing_id": "F10/fragments[0]",
      "group_id": ">1:4",
      "ru_midpoint": [
        1.088882739470303,
        7.0718771777947325
      ],
      "bond_midpoint": [
        1.1722247649101387,
        5.772928449932012
      ],
      "orientation_vector": [
        1.0,
        0.0
      ],
      "half_bracket_size": 0.5001001599500253,
      "bond": [
        28,
        33
      ],
      "fragment": "F10",
      "backbone": true,
      "suspended_anchor_atom": null,
      "suspended_reason": null,
      "source_label": "F10/fragments[0]",
      "marker_id": "0",
      "side": "left",
      "connection_group": ">1",
      "marker_type_index": 4
    },
    {
      "id": 15,
      "bracket_kind": "backbone",
      "pairing_id": "F10/fragments[0]",
      "group_id": "<1:3",
      "ru_midpoint": [
        1.088882739470303,
        7.0718771777947325
      ],
      "bond_midpoint": [
        1.1722515720159858,
        8.370774701829522
      ],
      "orientation_vector": [
        1.0,
        0.0
      ],
      "half_bracket_size": 0.5001001599500253,
      "bond": [
        29,
        35
      ],
      "fragment": "F10",
      "backbone": true,
      "suspended_anchor_atom": null,
      "suspended_reason": null,
      "source_label": "F10/fragments[0]",
      "marker_id": "4",
      "side": "right",
      "connection_group": "<1",
      "marker_type_index": 3
    },
    {
      "id": 16,
      "bracket_kind": "pendant",
      "pairing_id": "F1-1/substituted",
      "group_id": "<1:3",
      "ru_midpoint": [
        3.6110207803282455,
        3.8505844964486475
      ],
      "bond_midpoint": [
        1.1722703779033328,
        10.968634809134308
      ],
      "orientation_vector": [
        0.8659768099692357,
        0.5000841575130193
      ],
      "half_bracket_size": 0.5000159997440077,
      "bond": [
        32,
        31
      ],
      "fragment": "F1-1",
      "backbone": false,
      "suspended_anchor_atom": null,
      "suspended_reason": null,
      "source_label": "F1-1/substituted",
      "marker_id": "3",
      "side": "left",
      "connection_group": "<1",
      "marker_type_index": 3
    },
    {
      "id": 17,
      "bracket_kind": "pendant",
      "pairing_id": "F1-1/substituted",
      "group_id": "<1:3",
      "ru_midpoint": [
        4.0305272570431425,
        3.8242649190308424
      ],
      "bond_midpoint": [
        8.28374217295633,
        3.7222637633095177
      ],
      "orientation_vector": [
        0.5000841575130203,
        -0.8659768099692352
      ],
      "half_bracket_size": 0.5000159997440077,
      "bond": [
        41,
        40
      ],
      "fragment": "F1-1",
      "backbone": false,
      "suspended_anchor_atom": null,
      "suspended_reason": null,
      "source_label": "F1-1/substituted",
      "marker_id": "3@34-35",
      "side": "left",
      "connection_group": "<1",
      "marker_type_index": 3
    },
    {
      "id": 18,
      "bracket_kind": "pendant",
      "pairing_id": "F1-1/substituted",
      "group_id": "<1:3",
      "ru_midpoint": [
        2.9805636804653934,
        3.2114491819981583
      ],
      "bond_midpoint": [
        -4.706133740223792,
        0.22410086317029032
      ],
      "orientation_vector": [
        -0.500084157513019,
        0.8659768099692358
      ],
      "half_bracket_size": 0.5000159997440077,
      "bond": [
        10,
        49
      ],
      "fragment": "F1-1",
      "backbone": false,
      "suspended_anchor_atom": null,
      "suspended_reason": null,
      "source_label": "F1-1/substituted",
      "marker_id": "3@42-43",
      "side": "left",
      "connection_group": "<1",
      "marker_type_index": 3
    },
    {
      "id": 19,
      "bracket_kind": "pendant",
      "pairing_id": "F1-1/substituted",
      "group_id": "<1:3",
      "ru_midpoint": [
        3.6215768837869,
        2.776935741771196
      ],
      "bond_midpoint": [
        9.985372241346443,
        0.22419808784826767
      ],
      "orientation_vector": [
        -0.5000841575130203,
        -0.8659768099692352
      ],
      "half_bracket_size": 0.5000159997440077,
      "bond": [
        1,
        57
      ],
      "fragment": "F1-1",
      "backbone": false,
      "suspended_anchor_atom": null,
      "suspended_reason": null,
      "source_label": "F1-1/substituted",
      "marker_id": "3@50-51",
      "side": "left",
      "connection_group": "<1",
      "marker_type_index": 3
    },
    {
      "id": 20,
      "bracket_kind": "pendant",
      "pairing_id": "F1-1/substituted",
      "group_id": "<1:3",
      "ru_midpoint": [
        3.205791933844618,
        2.452790648902659
      ],
      "bond_midpoint": [
        -2.2208155652715416,
        0.2243219545880768
      ],
      "orientation_vector": [
        -0.500084157513019,
        0.8659768099692358
      ],
      "half_bracket_size": 0.5000159997440077,
      "bond": [
        66,
        65
      ],
      "fragment": "F1-1",
      "backbone": false,
      "suspended_anchor_atom": null,
      "suspended_reason": null,
      "source_label": "F1-1/substituted",
      "marker_id": "3@58-59",
      "side": "left",
      "connection_group": "<1",
      "marker_type_index": 3
    },
    {
      "id": 21,
      "bracket_kind": "pendant",
      "pairing_id": "F1-1/substituted",
      "group_id": "<1:3",
      "ru_midpoint": [
        3.9569941306578107,
        2.2016995487788056
      ],
      "bond_midpoint": [
        12.500338749204666,
        0.22438595446007614
      ],
      "orientation_vector": [
        -0.5000841575130203,
        -0.8659768099692352
      ],
      "half_bracket_size": 0.5000159997440077,
      "bond": [
        75,
        74
      ],
      "fragment": "F1-1",
      "backbone": false,
      "suspended_anchor_atom": null,
      "suspended_reason": null,
      "source_label": "F1-1/substituted",
      "marker_id": "3@66-67",
      "side": "left",
      "connection_group": "<1",
      "marker_type_index": 3
    },
    {
      "id": 22,
      "bracket_kind": "pendant",
      "pairing_id": "F1-1/substituted",
      "group_id": "<1:3",
      "ru_midpoint": [
        4.449860879002769,
        2.826415559304162
      ],
      "bond_midpoint": [
        8.853844751946221,
        10.968634809134308
      ],
      "orientation_vector": [
        0.8659768099692358,
        0.500084157513019
      ],
      "half_bracket_size": 0.5000159997440077,
      "bond": [
        84,
        83
      ],
      "fragment": "F1-1",
      "backbone": false,
      "suspended_anchor_atom": null,
      "suspended_reason": null,
      "source_label": "F1-1/substituted",
      "marker_id": "3@74-75",
      "side": "left",
      "connection_group": "<1",
      "marker_type_index": 3
    },
    {
      "id": 23,
      "bracket_kind": "pendant",
      "pairing_id": "F1-1/substituted",
      "group_id": "<1:3",
      "ru_midpoint": [
        4.470586456729666,
        2.8170105602809468
      ],
      "bond_midpoint": [
        2.1071655685198056,
        2.724165014083308
      ],
      "orientation_vector": [
        -0.500084157513019,
        0.8659768099692358
      ],
      "half_bracket_size": 0.5000159997440077,
      "bond": [
        93,
        92
      ],
      "fragment": "F1-1",
      "backbone": false,
      "suspended_anchor_atom": null,
      "suspended_reason": null,
      "source_label": "F1-1/substituted",
      "marker_id": "3@82-83",
      "side": "left",
      "connection_group": "<1",
      "marker_type_index": 3
    },
    {
      "id": 24,
      "bracket_kind": "backbone",
      "pairing_id": "F1/fragments[0]",
      "group_id": ">1:4",
      "ru_midpoint": [
        -8.170403012401598,
        0.2241143315917533
      ],
      "bond_midpoint": [
        -11.634706514849253,
        0.22410086317029032
      ],
      "orientation_vector": [
        0.0,
        -1.0
      ],
      "half_bracket_size": 0.4999009998503273,
      "bond": [
        0,
        2
      ],
      "fragment": "F1",
      "backbone": true,
      "suspended_anchor_atom": null,
      "suspended_reason": null,
      "source_label": "F1/fragments[0]",
      "marker_id": "0",
      "side": "left",
      "connection_group": ">1",
      "marker_type_index": 4
    },
    {
      "id": 25,
      "bracket_kind": "backbone",
      "pairing_id": "F1/fragments[0]",
      "group_id": ">1:4",
      "ru_midpoint": [
        -8.170403012401598,
        0.2241143315917533
      ],
      "bond_midpoint": [
        -4.706133740223792,
        0.22410086317029032
      ],
      "orientation_vector": [
        0.0,
        -1.0
      ],
      "half_bracket_size": 0.4999009998503273,
      "bond": [
        10,
        49
      ],
      "fragment": "F1",
      "backbone": true,
      "suspended_anchor_atom": null,
      "suspended_reason": null,
      "source_label": "F1/fragments[0]",
      "marker_id": "11",
      "side": "right",
      "connection_group": ">1",
      "marker_type_index": 4
    },
    {
      "id": 26,
      "bracket_kind": "backbone",
      "pairing_id": "F1/connected",
      "group_id": "$overall",
      "ru_midpoint": [
        3.3991731486427876,
        2.7480693608290356
      ],
      "bond_midpoint": [
        -11.634706514849253,
        0.22410086317029032
      ],
      "orientation_vector": [
        0.27472112789737807,
        -0.9615239476408232
      ],
      "half_bracket_size": 12.427488706235499,
      "bond": [
        0,
        2
      ],
      "fragment": "F1",
      "backbone": true,
      "suspended_anchor_atom": null,
      "suspended_reason": null,
      "source_label": "F1/connected",
      "marker_id": "connected-overall-left",
      "side": "left",
      "connection_group": "$overall",
      "marker_type_index": null
    },
    {
      "id": 27,
      "bracket_kind": "backbone",
      "pairing_id": "F1/connected",
      "group_id": "$overall",
      "ru_midpoint": [
        3.3991731486427876,
        2.7480693608290356
      ],
      "bond_midpoint": [
        12.500338749204666,
        0.22438595446007614
      ],
      "orientation_vector": [
        0.27472112789737807,
        -0.9615239476408232
      ],
      "half_bracket_size": 12.427488706235499,
      "bond": [
        75,
        74
      ],
      "fragment": "F1",
      "backbone": true,
      "suspended_anchor_atom": null,
      "suspended_reason": null,
      "source_label": "F1/connected",
      "marker_id": "connected-overall-right",
      "side": "right",
      "connection_group": "$overall",
      "marker_type_index": null
    }
  ]
}
