
     RDKit          2D

  0  0  0  0  0  0  0  0  0  0999 V3000
M  V30 BEGIN CTAB
M  V30 COUNTS 7 6 4 0 0
M  V30 BEGIN ATOM
M  V30 1 H -2.165268 0.051492 0.000000 0
M  V30 2 H 2.164824 -0.448608 0.000000 0
M  V30 3 C -1.299263 -0.448608 0.000000 0
M  V30 4 C -0.433258 0.051492 0.000000 0
M  V30 5 C 0.432709 -0.448608 0.000000 0
M  V30 6 C 1.298766 0.051365 0.000000 0
M  V30 7 R 1.298766 1.051367 0.000000 2
M  V30 END ATOM
M  V30 BEGIN BOND
M  V30 1 1 3 4
M  V30 2 1 5 6
M  V30 3 1 6 7
M  V30 4 1 4 5
M  V30 5 1 1 3
M  V30 6 1 2 6
M  V30 END BOND
M  V30 BEGIN SGROUP
M  V30 1 SRU 0 ATOMS=(4 1 3 4 5) CBONDS=(2 4 5) -
M  V30 BRKXYZ=(9 -1.7323 -0.6987 0 -1.7323 0.3015 0 0 0 0) BRKXYZ=(9 -0.0003 --
M  V30 0.6987 0 -0.0003 0.3015 0 0 0 0)
M  V30 2 SRU 0 ATOMS=(4 2 4 5 6) CBONDS=(2 4 6) -
M  V30 BRKXYZ=(9 -0.0003 -0.6987 0 -0.0003 0.3015 0 0 0 0) BRKXYZ=(9 1.7318 -0-
M  V30 .6987 0 1.7318 0.3015 0 0 0 0)
M  V30 3 SRU 0 ATOMS=(4 1 2 3 6) CBONDS=(2 5 6) -
M  V30 BRKXYZ=(9 -1.7323 -1.6985 0 -1.7323 1.3014 0 0 0 0) BRKXYZ=(9 1.7318 -1-
M  V30 .6986 0 1.7318 1.3014 0 0 0 0)
M  V30 4 SRU 0 ATOMS=(2 6 7) CBONDS=(1 3) -
M  V30 BRKXYZ=(9 1.7988 0.5514 0 0.7988 0.5514 0 0 0 0)
M  V30 END SGROUP
M  V30 END CTAB
M  END
>  <BIGSMILES_BRACKET_RECORDS_JSON>
{
  "records": [
    {
      "id": 0,
      "bracket_kind": "backbone",
      "pairing_id": "F1/fragments[0]",
      "group_id": "$a:2",
      "ru_midpoint": [
        -0.866275650482004,
        -0.19855146708484345
      ],
      "bond_midpoint": [
        -1.7322652560556067,
        -0.1985576330917358
      ],
      "orientation_vector": [
        0.0,
        -1.0
      ],
      "half_bracket_size": 0.5001001599500253,
      "bond": [
        0,
        2
      ],
      "fragment": "F1",
      "backbone": true,
      "suspended_anchor_atom": null,
      "suspended_reason": null,
      "source_label": "F1/fragments[0]",
      "marker_id": "0",
      "side": "left",
      "connection_group": "$a",
      "marker_type_index": 2
    },
    {
      "id": 1,
      "bracket_kind": "backbone",
      "pairing_id": "F1/fragments[0]",
      "group_id": "$a:2",
      "ru_midpoint": [
        -0.866275650482004,
        -0.19855146708484345
      ],
      "bond_midpoint": [
        -0.00027469053634066043,
        -0.19855763309173585
      ],
      "orientation_vector": [
        0.0,
        -1.0
      ],
      "half_bracket_size": 0.5001001599500253,
      "bond": [
        3,
        4
      ],
      "fragment": "F1",
      "backbone": true,
      "suspended_anchor_atom": null,
      "suspended_reason": null,
      "source_label": "F1/fragments[0]",
      "marker_id": "3",
      "side": "right",
      "connection_group": "$a",
      "marker_type_index": 2
    },
    {
      "id": 2,
      "bracket_kind": "backbone",
      "pairing_id": "F1/fragments[1]",
      "group_id": "$a:2",
      "ru_midpoint": [
        0.8657519077572495,
        -0.19863262705163165
      ],
      "bond_midpoint": [
        -0.00027469053634066043,
        -0.19855763309173585
      ],
      "orientation_vector": [
        0.0,
        -1.0
      ],
      "half_bracket_size": 0.5001001599500253,
      "bond": [
        3,
        4
      ],
      "fragment": "F1",
      "backbone": true,
      "suspended_anchor_atom": null,
      "suspended_reason": null,
      "source_label": "F1/fragments[1]",
      "marker_id": "0",
      "side": "left",
      "connection_group": "$a",
      "marker_type_index": 2
    },
    {
      "id": 3,
      "bracket_kind": "backbone",
      "pairing_id": "F1/fragments[1]",
      "group_id": "$a:2",
      "ru_midpoint": [
        0.8657519077572495,
        -0.19863262705163165
      ],
      "bond_midpoint": [
        1.7317949859291466,
        -0.1986211834541319
      ],
      "orientation_vector": [
        0.0,
        -1.0
      ],
      "half_bracket_size": 0.5001001599500253,
      "bond": [
        1,
        5
      ],
      "fragment": "F1",
      "backbone": true,
      "suspended_anchor_atom": null,
      "suspended_reason": null,
      "source_label": "F1/fragments[1]",
      "marker_id": "4",
      "side": "right",
      "connection_group": "$a",
      "marker_type_index": 2
    },
    {
      "id": 4,
      "bracket_kind": "pendant",
      "pairing_id": "F1/fragments[1]",
      "group_id": "$a:2",
      "ru_midpoint": [
        0.8657519077572495,
        -0.19863262705163165
      ],
      "bond_midpoint": [
        1.298766355221845,
        0.5513663461574847
      ],
      "orientation_vector": [
        1.0,
        0.0
      ],
      "half_bracket_size": 0.5000009999990002,
      "bond": [
        5,
        6
      ],
      "fragment": "F1",
      "backbone": false,
      "suspended_anchor_atom": null,
      "suspended_reason": null,
      "source_label": "F1/fragments[1]",
      "marker_id": "3",
      "side": "right",
      "connection_group": "$a",
      "marker_type_index": 2
    },
    {
      "id": 5,
      "bracket_kind": "backbone",
      "pairing_id": "F1/connected",
      "group_id": "$overall",
      "ru_midpoint": [
        -0.0002541845145427324,
        -0.19858409413647538
      ],
      "bond_midpoint": [
        -1.7322652560556067,
        -0.1985576330917358
      ],
      "orientation_vector": [
        0.0,
        -1.0
      ],
      "half_bracket_size": 1.499975059223233,
      "bond": [
        0,
        2
      ],
      "fragment": "F1",
      "backbone": true,
      "suspended_anchor_atom": null,
      "suspended_reason": null,
      "source_label": "F1/connected",
      "marker_id": "connected-overall-left",
      "side": "left",
      "connection_group": "$overall",
      "marker_type_index": null
    },
    {
      "id": 6,
      "bracket_kind": "backbone",
      "pairing_id": "F1/connected",
      "group_id": "$overall",
      "ru_midpoint": [
        -0.0002541845145427324,
        -0.19858409413647538
      ],
      "bond_midpoint": [
        1.7317949859291466,
        -0.1986211834541319
      ],
      "orientation_vector": [
        0.0,
        -1.0
      ],
      "half_bracket_size": 1.499975059223233,
      "bond": [
        1,
        5
      ],
      "fragment": "F1",
      "backbone": true,
      "suspended_anchor_atom": null,
      "suspended_reason": null,
      "source_label": "F1/connected",
      "marker_id": "connected-overall-right",
      "side": "right",
      "connection_group": "$overall",
      "marker_type_index": null
    }
  ]
}
