
     RDKit          2D

  0  0  0  0  0  0  0  0  0  0999 V3000
M  V30 BEGIN CTAB
M  V30 COUNTS 9 9 2 0 0
M  V30 BEGIN ATOM
M  V30 1 H -1.732238 0.051400 0.000000 0
M  V30 2 H 1.731839 0.051400 0.000000 0
M  V30 3 C -0.866212 -0.448600 0.000000 0
M  V30 4 C -0.866212 -1.448586 0.000000 0
M  V30 5 C -0.000199 -1.948578 0.000000 0
M  V30 6 R -0.000199 -2.948593 0.000000 4
M  V30 7 C 0.865814 -1.448586 0.000000 0
M  V30 8 C 0.865814 -0.448600 0.000000 0
M  V30 9 C -0.000199 0.051393 0.000000 0
M  V30 END ATOM
M  V30 BEGIN BOND
M  V30 1 2 3 4
M  V30 2 1 4 5
M  V30 3 1 5 6
M  V30 4 2 5 7
M  V30 5 1 7 8
M  V30 6 2 8 9
M  V30 7 1 9 3
M  V30 8 1 1 3
M  V30 9 1 2 8
M  V30 END BOND
M  V30 BEGIN SGROUP
M  V30 1 SRU 0 ATOMS=(4 1 2 3 8) CBONDS=(2 8 9) -
M  V30 BRKXYZ=(9 -1.2992 1.8014 0 -1.2992 -2.1986 0 0 0 0) BRKXYZ=(9 1.2988 1.-
M  V30 8014 0 1.2988 -2.1986 0 0 0 0)
M  V30 2 SRU 0 ATOMS=(2 5 6) CBONDS=(1 3) -
M  V30 BRKXYZ=(9 0.4998 -2.4486 0 -0.5002 -2.4486 0 0 0 0)
M  V30 END SGROUP
M  V30 END CTAB
M  END
>  <BIGSMILES_BRACKET_RECORDS_JSON>
{
  "records": [
    {
      "id": 0,
      "bracket_kind": "backbone",
      "pairing_id": "F1/fragments[0]",
      "group_id": "<1:3",
      "ru_midpoint": [
        -0.0001994341802312033,
        -0.6985946046717766
      ],
      "bond_midpoint": [
        -1.29922507988008,
        -0.19859999999999983
      ],
      "orientation_vector": [
        0.0,
        1.0
      ],
      "half_bracket_size": 1.999978418687106,
      "bond": [
        0,
        2
      ],
      "fragment": "F1",
      "backbone": true,
      "suspended_anchor_atom": null,
      "suspended_reason": null,
      "source_label": "F1/fragments[0]",
      "marker_id": "0",
      "side": "left",
      "connection_group": "<1",
      "marker_type_index": 3
    },
    {
      "id": 1,
      "bracket_kind": "backbone",
      "pairing_id": "F1/fragments[0]",
      "group_id": ">1:4",
      "ru_midpoint": [
        -0.0001994341802312033,
        -0.6985946046717766
      ],
      "bond_midpoint": [
        1.2988262115196176,
        -0.19860000000000042
      ],
      "orientation_vector": [
        0.0,
        1.0
      ],
      "half_bracket_size": 1.999978418687106,
      "bond": [
        1,
        7
      ],
      "fragment": "F1",
      "backbone": true,
      "suspended_anchor_atom": null,
      "suspended_reason": null,
      "source_label": "F1/fragments[0]",
      "marker_id": "7",
      "side": "right",
      "connection_group": ">1",
      "marker_type_index": 4
    },
    {
      "id": 2,
      "bracket_kind": "pendant",
      "pairing_id": "F1/fragments[0]",
      "group_id": ">1:4",
      "ru_midpoint": [
        -0.0001994341802312033,
        -0.6985946046717766
      ],
      "bond_midpoint": [
        -0.0001994341802312258,
        -2.448585936792057
      ],
      "orientation_vector": [
        1.0,
        0.0
      ],
      "half_bracket_size": 0.5000075181049513,
      "bond": [
        4,
        5
      ],
      "fragment": "F1",
      "backbone": false,
      "suspended_anchor_atom": null,
      "suspended_reason": null,
      "source_label": "F1/fragments[0]",
      "marker_id": "4",
      "side": "right",
      "connection_group": ">1",
      "marker_type_index": 4
    }
  ]
}
