
     RDKit          2D

  0  0  0  0  0  0  0  0  0  0999 V3000
M  V30 BEGIN CTAB
M  V30 COUNTS 32 38 1 0 0
M  V30 BEGIN ATOM
M  V30 1 R 7.727292 -2.856608 0.000000 5
M  V30 2 C 10.727209 -2.856608 0.000000 0
M  V30 3 N 10.227129 -1.990605 0.000000 0
M  V30 4 C 10.727253 -1.124603 0.000000 0
M  V30 5 C 10.227174 -0.258600 0.000000 0
M  V30 6 C 10.727098 0.607402 0.000000 0
M  V30 7 C 10.227218 1.473405 0.000000 0
M  V30 8 C 9.227215 1.473406 0.000000 0
M  V30 9 C 8.727292 0.607404 0.000000 0
M  V30 10 C 9.227171 -0.258600 0.000000 0
M  V30 11 C 10.727142 2.339407 0.000000 0
M  V30 12 N 10.227263 3.205410 0.000000 0
M  V30 13 C 10.727186 4.071412 0.000000 0
M  V30 14 C 11.727189 4.071411 0.000000 0
M  V30 15 N 12.227068 3.205408 0.000000 0
M  V30 16 C 11.727145 2.339406 0.000000 0
M  V30 17 C 12.227224 1.473403 0.000000 0
M  V30 18 C 11.727100 0.607401 0.000000 0
M  V30 19 C 12.227180 -0.258602 0.000000 0
M  V30 20 C 13.227182 -0.258602 0.000000 0
M  V30 21 C 13.727106 0.607400 0.000000 0
M  V30 22 C 13.227227 1.473403 0.000000 0
M  V30 23 C 11.727256 -1.124604 0.000000 0
M  V30 24 N 12.227135 -1.990607 0.000000 0
M  V30 25 C 11.727211 -2.856609 0.000000 0
M  V30 26 R 14.727106 -2.856609 0.000000 6
M  V30 27 C 12.227113 4.937413 0.000000 0
M  V30 28 C 11.727234 5.803416 0.000000 0
M  V30 29 C 10.727231 5.803417 0.000000 0
M  V30 30 R 7.727292 5.803417 0.000000 5
M  V30 31 C 10.227107 4.937415 0.000000 0
M  V30 32 R 14.727106 5.803416 0.000000 6
M  V30 END ATOM
M  V30 BEGIN BOND
M  V30 1 1 1 2
M  V30 2 2 2 3
M  V30 3 1 3 4
M  V30 4 2 4 5
M  V30 5 1 5 6
M  V30 6 1 6 7
M  V30 7 2 7 8
M  V30 8 1 8 9
M  V30 9 2 9 10
M  V30 10 1 7 11
M  V30 11 2 11 12
M  V30 12 1 12 13
M  V30 13 2 13 14
M  V30 14 1 14 15
M  V30 15 2 15 16
M  V30 16 1 16 17
M  V30 17 1 17 18
M  V30 18 1 18 19
M  V30 19 1 19 20
M  V30 20 2 20 21
M  V30 21 1 21 22
M  V30 22 2 19 23
M  V30 23 1 23 24
M  V30 24 2 24 25
M  V30 25 1 25 26
M  V30 26 1 14 27
M  V30 27 2 27 28
M  V30 28 1 28 29
M  V30 29 1 29 30
M  V30 30 2 29 31
M  V30 31 1 28 32
M  V30 32 1 25 2
M  V30 33 1 23 4
M  V30 34 1 10 5
M  V30 35 1 16 11
M  V30 36 2 22 17
M  V30 37 2 18 6
M  V30 38 1 31 13
M  V30 END BOND
M  V30 BEGIN SGROUP
M  V30 1 SRU 0 ATOMS=(4 1 2 25 26) CBONDS=(2 1 25) -
M  V30 BRKXYZ=(9 9.2273 1.9064 0 9.2273 -7.6196 0 0 0 0) BRKXYZ=(9 13.2272 1.9-
M  V30 064 0 13.2272 -7.6196 0 0 0 0)
M  V30 END SGROUP
M  V30 END CTAB
M  END
>  <BIGSMILES_BRACKET_RECORDS_JSON>
{
  "records": [
    {
      "id": 0,
      "bracket_kind": "backbone",
      "pairing_id": "F1/fragments[0]",
      "group_id": "-1,-1:5",
      "ru_midpoint": [
        11.227182968714663,
        1.3110285976126435
      ],
      "bond_midpoint": [
        9.227250176293172,
        -2.8566079803791284
      ],
      "orientation_vector": [
        -0.0,
        1.0
      ],
      "half_bracket_size": 4.763014133707273,
      "bond": [
        0,
        1
      ],
      "fragment": "F1",
      "backbone": true,
      "suspended_anchor_atom": null,
      "suspended_reason": null,
      "source_label": "F1/fragments[0]",
      "marker_id": "0",
      "side": "left",
      "connection_group": "-1,-1",
      "marker_type_index": 5
    },
    {
      "id": 1,
      "bracket_kind": "backbone",
      "pairing_id": "F1/fragments[0]",
      "group_id": "1,1:6",
      "ru_midpoint": [
        11.227182968714663,
        1.3110285976126435
      ],
      "bond_midpoint": [
        13.227158816567782,
        -2.856608698878472
      ],
      "orientation_vector": [
        -0.0,
        1.0
      ],
      "half_bracket_size": 4.763014133707273,
      "bond": [
        24,
        25
      ],
      "fragment": "F1",
      "backbone": true,
      "suspended_anchor_atom": null,
      "suspended_reason": null,
      "source_label": "F1/fragments[0]",
      "marker_id": "25",
      "side": "right",
      "connection_group": "1,1",
      "marker_type_index": 6
    }
  ]
}
