
     RDKit          2D

  0  0  0  0  0  0  0  0  0  0999 V3000
M  V30 BEGIN CTAB
M  V30 COUNTS 71 75 4 0 0
M  V30 BEGIN ATOM
M  V30 1 O -7.434307 -0.779241 0.000000 0
M  V30 2 O -1.371636 -1.279195 0.000000 0
M  V30 3 C -0.505636 -0.779195 0.000000 0
M  V30 4 C -0.505636 0.220805 0.000000 0
M  V30 5 C -1.371778 0.721002 0.000000 0
M  V30 6 C -1.371405 1.721054 0.000000 0
M  V30 7 C -0.505509 2.221034 0.000000 0
M  V30 8 C 0.360633 1.720836 0.000000 0
M  V30 9 C 0.360360 0.720958 0.000000 0
M  V30 10 C 1.271692 -1.279195 0.000000 0
M  V30 11 C 1.271692 -0.279195 0.000000 0
M  V30 12 C 0.405413 0.220766 0.000000 0
M  V30 13 C 0.405413 1.220644 0.000000 0
M  V30 14 C 1.271272 1.721034 0.000000 0
M  V30 15 C 2.137551 1.221073 0.000000 0
M  V30 16 C 2.137451 0.221022 0.000000 0
M  V30 17 O 2.137692 -0.779195 0.000000 0
M  V30 18 O 8.199958 -1.279250 0.000000 0
M  V30 19 C -6.568240 -1.279168 0.000000 0
M  V30 20 C -5.702057 -0.779267 0.000000 0
M  V30 21 C -4.836037 -1.279168 0.000000 0
M  V30 22 C -3.969938 -0.779267 0.000000 0
M  V30 23 C -3.103802 -1.279168 0.000000 0
M  V30 24 C -2.237703 -0.779267 0.000000 0
M  V30 25 O -2.237684 0.220735 0.000000 0
M  V30 26 C -0.505636 -1.779195 0.000000 0
M  V30 27 C 0.360373 -2.279186 0.000000 0
M  V30 28 C 0.360373 -3.279167 0.000000 0
M  V30 29 C -1.371645 -2.279186 0.000000 0
M  V30 30 C -1.371645 -3.279167 0.000000 0
M  V30 31 C -0.505636 -3.779158 0.000000 0
M  V30 32 O -0.505636 -4.779158 0.000000 0
M  V30 33 C -1.005636 -5.645104 0.000000 0
M  V30 34 O -2.005637 -5.645077 0.000000 0
M  V30 35 C -0.505636 -6.511158 0.000000 0
M  V30 36 C 0.494364 -6.511158 0.000000 0
M  V30 37 Br -1.005705 -9.109223 0.000000 0
M  V30 38 C -1.005670 -7.377164 0.000000 0
M  V30 39 C -0.505670 -8.243217 0.000000 0
M  V30 40 C -1.505695 -8.243217 0.000000 0
M  V30 41 C 0.494362 -8.243217 0.000000 0
M  V30 42 O 0.994453 -7.377245 0.000000 0
M  V30 43 O 0.994202 -9.109363 0.000000 0
M  V30 44 C 1.994234 -9.109363 0.000000 0
M  V30 45 C 1.271692 -2.279195 0.000000 0
M  V30 46 C 2.137701 -2.779186 0.000000 0
M  V30 47 C 2.137701 -3.779167 0.000000 0
M  V30 48 C 0.405683 -2.779186 0.000000 0
M  V30 49 C 0.405683 -3.779167 0.000000 0
M  V30 50 C 1.271692 -4.279158 0.000000 0
M  V30 51 O 1.271692 -5.279158 0.000000 0
M  V30 52 C 0.771692 -6.145104 0.000000 0
M  V30 53 O -0.228309 -6.145077 0.000000 0
M  V30 54 C 1.271692 -7.011158 0.000000 0
M  V30 55 C 2.271692 -7.011158 0.000000 0
M  V30 56 Br 0.771643 -9.609135 0.000000 0
M  V30 57 C 0.771686 -7.877180 0.000000 0
M  V30 58 C 1.271693 -8.743139 0.000000 0
M  V30 59 C 2.271695 -8.743139 0.000000 0
M  V30 60 C 2.771628 -7.876937 0.000000 0
M  V30 61 C 3.771630 -7.877137 0.000000 0
M  V30 62 C 4.271699 -8.742939 0.000000 0
M  V30 63 C 3.771766 -9.609141 0.000000 0
M  V30 64 C 2.771764 -9.608941 0.000000 0
M  V30 65 C 3.003701 -1.279223 0.000000 0
M  V30 66 O 3.003682 -2.279225 0.000000 0
M  V30 67 C 3.869742 -0.779222 0.000000 0
M  V30 68 C 4.735820 -1.279223 0.000000 0
M  V30 69 C 5.601861 -0.779222 0.000000 0
M  V30 70 C 6.467824 -1.279223 0.000000 0
M  V30 71 C 7.333949 -0.779222 0.000000 0
M  V30 END ATOM
M  V30 BEGIN BOND
M  V30 1 1 2 3
M  V30 2 1 3 4
M  V30 3 2 4 5
M  V30 4 1 5 6
M  V30 5 2 6 7
M  V30 6 1 7 8
M  V30 7 2 8 9
M  V30 8 1 3 10
M  V30 9 1 10 11
M  V30 10 2 11 12
M  V30 11 1 12 13
M  V30 12 2 13 14
M  V30 13 1 14 15
M  V30 14 2 15 16
M  V30 15 1 10 17
M  V30 16 1 9 4
M  V30 17 1 16 11
M  V30 18 1 19 20
M  V30 19 1 20 21
M  V30 20 1 21 22
M  V30 21 1 22 23
M  V30 22 1 23 24
M  V30 23 2 24 25
M  V30 24 1 1 19
M  V30 25 1 2 24
M  V30 26 2 26 27
M  V30 27 1 27 28
M  V30 28 1 26 29
M  V30 29 2 29 30
M  V30 30 1 30 31
M  V30 31 1 31 32
M  V30 32 1 32 33
M  V30 33 2 33 34
M  V30 34 1 33 35
M  V30 35 1 35 36
M  V30 36 2 31 28
M  V30 37 1 38 39
M  V30 38 1 39 40
M  V30 39 1 39 41
M  V30 40 2 41 42
M  V30 41 1 41 43
M  V30 42 1 43 44
M  V30 43 1 35 38
M  V30 44 1 37 39
M  V30 45 1 3 26
M  V30 46 2 45 46
M  V30 47 1 46 47
M  V30 48 1 45 48
M  V30 49 2 48 49
M  V30 50 1 49 50
M  V30 51 1 50 51
M  V30 52 1 51 52
M  V30 53 2 52 53
M  V30 54 1 52 54
M  V30 55 1 54 55
M  V30 56 2 50 47
M  V30 57 1 57 58
M  V30 58 1 58 59
M  V30 59 2 59 60
M  V30 60 1 60 61
M  V30 61 2 61 62
M  V30 62 1 62 63
M  V30 63 2 63 64
M  V30 64 1 64 59
M  V30 65 1 54 57
M  V30 66 1 56 58
M  V30 67 1 10 45
M  V30 68 2 65 66
M  V30 69 1 65 67
M  V30 70 1 67 68
M  V30 71 1 68 69
M  V30 72 1 69 70
M  V30 73 1 70 71
M  V30 74 1 17 65
M  V30 75 1 18 71
M  V30 END BOND
M  V30 BEGIN SGROUP
M  V30 1 SRU 0 ATOMS=(4 54 56 57 58) CBONDS=(2 65 66) -
M  V30 BRKXYZ=(9 0.5217 -7.4442 0 1.5217 -7.4442 0 0 0 0) BRKXYZ=(9 0.5217 -9.-
M  V30 1761 0 1.5217 -9.1761 0 0 0 0)
M  V30 2 SRU 0 ATOMS=(4 35 37 38 39) CBONDS=(2 43 44) -
M  V30 BRKXYZ=(9 -1.2557 -6.9442 0 -0.2557 -6.9442 0 0 0 0) BRKXYZ=(9 -1.2557 -
M  V30 -8.6762 0 -0.2557 -8.6762 0 0 0 0)
M  V30 3 SRU 0 ATOMS=(4 17 18 65 71) CBONDS=(2 74 75) -
M  V30 BRKXYZ=(9 2.5707 -0.5292 0 2.5707 -1.5292 0 0 0 0) BRKXYZ=(9 7.7670 -0.-
M  V30 5292 0 7.7670 -1.5292 0 0 0 0)
M  V30 4 SRU 0 ATOMS=(4 1 2 19 24) CBONDS=(2 24 25) -
M  V30 BRKXYZ=(9 -7.0013 -1.5291 0 -7.0013 -0.5293 0 0 0 0) BRKXYZ=(9 -1.8047 -
M  V30 -1.5291 0 -1.8047 -0.5293 0 0 0 0)
M  V30 END SGROUP
M  V30 END CTAB
M  END
>  <BIGSMILES_BRACKET_RECORDS_JSON>
{
  "records": [
    {
      "id": 0,
      "bracket_kind": "backbone",
      "pairing_id": "F6/fragments[0]",
      "group_id": "$a:2",
      "ru_midpoint": [
        1.021689379903771,
        -8.310133997293455
      ],
      "bond_midpoint": [
        1.021688879898213,
        -7.444168957693795
      ],
      "orientation_vector": [
        -1.0,
        0.0
      ],
      "half_bracket_size": 0.5000070589092322,
      "bond": [
        53,
        56
      ],
      "fragment": "F6",
      "backbone": true,
      "suspended_anchor_atom": null,
      "suspended_reason": null,
      "source_label": "F6/fragments[0]",
      "marker_id": "0",
      "side": "left",
      "connection_group": "$a",
      "marker_type_index": 2
    },
    {
      "id": 1,
      "bracket_kind": "backbone",
      "pairing_id": "F6/fragments[0]",
      "group_id": "$a:2",
      "ru_midpoint": [
        1.021689379903771,
        -8.310133997293455
      ],
      "bond_midpoint": [
        1.0216678218113122,
        -9.17613723762996
      ],
      "orientation_vector": [
        -1.0,
        0.0
      ],
      "half_bracket_size": 0.5000070589092322,
      "bond": [
        55,
        57
      ],
      "fragment": "F6",
      "backbone": true,
      "suspended_anchor_atom": null,
      "suspended_reason": null,
      "source_label": "F6/fragments[0]",
      "marker_id": "9",
      "side": "right",
      "connection_group": "$a",
      "marker_type_index": 2
    },
    {
      "id": 2,
      "bracket_kind": "backbone",
      "pairing_id": "F5/fragments[0]",
      "group_id": "$a:2",
      "ru_midpoint": [
        -0.7556703677107213,
        -7.810190538450172
      ],
      "bond_midpoint": [
        -0.7556533309640221,
        -6.944160824780557
      ],
      "orientation_vector": [
        -1.0,
        0.0
      ],
      "half_bracket_size": 0.500000157129195,
      "bond": [
        34,
        37
      ],
      "fragment": "F5",
      "backbone": true,
      "suspended_anchor_atom": null,
      "suspended_reason": null,
      "source_label": "F5/fragments[0]",
      "marker_id": "0",
      "side": "left",
      "connection_group": "$a",
      "marker_type_index": 2
    },
    {
      "id": 3,
      "bracket_kind": "backbone",
      "pairing_id": "F5/fragments[0]",
      "group_id": "$a:2",
      "ru_midpoint": [
        -0.7556703677107213,
        -7.810190538450172
      ],
      "bond_midpoint": [
        -0.7556874044574204,
        -8.676220252119787
      ],
      "orientation_vector": [
        -1.0,
        0.0
      ],
      "half_bracket_size": 0.500000157129195,
      "bond": [
        36,
        38
      ],
      "fragment": "F5",
      "backbone": true,
      "suspended_anchor_atom": null,
      "suspended_reason": null,
      "source_label": "F5/fragments[0]",
      "marker_id": "8",
      "side": "right",
      "connection_group": "$a",
      "marker_type_index": 2
    },
    {
      "id": 4,
      "bracket_kind": "backbone",
      "pairing_id": "F4/fragments[0]",
      "group_id": "<1:3",
      "ru_midpoint": [
        5.168818391435916,
        -1.0292226613855116
      ],
      "bond_midpoint": [
        2.570696545156885,
        -1.029209190269868
      ],
      "orientation_vector": [
        0.0,
        1.0
      ],
      "half_bracket_size": 0.5000009984575864,
      "bond": [
        16,
        64
      ],
      "fragment": "F4",
      "backbone": true,
      "suspended_anchor_atom": null,
      "suspended_reason": null,
      "source_label": "F4/fragments[0]",
      "marker_id": "0",
      "side": "left",
      "connection_group": "<1",
      "marker_type_index": 3
    },
    {
      "id": 5,
      "bracket_kind": "backbone",
      "pairing_id": "F4/fragments[0]",
      "group_id": ">1:4",
      "ru_midpoint": [
        5.168818391435916,
        -1.0292226613855116
      ],
      "bond_midpoint": [
        7.7669534271990965,
        -1.0292361325011552
      ],
      "orientation_vector": [
        0.0,
        1.0
      ],
      "half_bracket_size": 0.5000009984575864,
      "bond": [
        17,
        70
      ],
      "fragment": "F4",
      "backbone": true,
      "suspended_anchor_atom": null,
      "suspended_reason": null,
      "source_label": "F4/fragments[0]",
      "marker_id": "8",
      "side": "right",
      "connection_group": ">1",
      "marker_type_index": 4
    },
    {
      "id": 6,
      "bracket_kind": "backbone",
      "pairing_id": "F1/fragments[0]",
      "group_id": ">1:4",
      "ru_midpoint": [
        -4.402965141244421,
        -1.0292178813109434
      ],
      "bond_midpoint": [
        -7.001273696006517,
        -1.0292044128947682
      ],
      "orientation_vector": [
        0.0,
        -1.0
      ],
      "half_bracket_size": 0.499900803564275,
      "bond": [
        0,
        18
      ],
      "fragment": "F1",
      "backbone": true,
      "suspended_anchor_atom": null,
      "suspended_reason": null,
      "source_label": "F1/fragments[0]",
      "marker_id": "0",
      "side": "left",
      "connection_group": ">1",
      "marker_type_index": 4
    },
    {
      "id": 7,
      "bracket_kind": "backbone",
      "pairing_id": "F1/fragments[0]",
      "group_id": "<1:3",
      "ru_midpoint": [
        -4.402965141244421,
        -1.0292178813109434
      ],
      "bond_midpoint": [
        -1.8046697750860323,
        -1.0292313497271186
      ],
      "orientation_vector": [
        0.0,
        -1.0
      ],
      "half_bracket_size": 0.499900803564275,
      "bond": [
        1,
        23
      ],
      "fragment": "F1",
      "backbone": true,
      "suspended_anchor_atom": null,
      "suspended_reason": null,
      "source_label": "F1/fragments[0]",
      "marker_id": "8",
      "side": "right",
      "connection_group": "<1",
      "marker_type_index": 3
    }
  ]
}
