
     RDKit          2D

  0  0  0  0  0  0  0  0  0  0999 V3000
M  V30 BEGIN CTAB
M  V30 COUNTS 43 45 2 0 0
M  V30 BEGIN ATOM
M  V30 1 C 6.018242 -0.285616 0.000000 0
M  V30 2 C 7.018242 -0.285616 0.000000 0
M  V30 3 C 7.518235 -1.151629 0.000000 0
M  V30 4 C 8.518221 -1.151629 0.000000 0
M  V30 5 C 9.018214 -0.285616 0.000000 0
M  V30 6 C 8.518221 0.580397 0.000000 0
M  V30 7 C 7.518235 0.580397 0.000000 0
M  V30 8 O 5.152353 0.214484 0.000000 0
M  V30 9 C 4.286473 -0.285616 0.000000 0
M  V30 10 C 3.420584 0.214484 0.000000 0
M  V30 11 O -0.043686 0.214430 0.000000 0
M  V30 12 C -0.909566 -0.285670 0.000000 0
M  V30 13 C -0.909566 -1.285670 0.000000 0
M  V30 14 O -1.775567 -1.785778 0.000000 0
M  V30 15 C -1.775567 -2.785778 0.000000 0
M  V30 16 C -0.909566 -3.285671 0.000000 0
M  V30 17 O -2.641567 -3.285685 0.000000 0
M  V30 18 C -2.641567 -4.285686 0.000000 0
M  V30 19 C -3.507567 -4.785793 0.000000 0
M  V30 20 C -2.165201 0.214430 0.000000 0
M  V30 21 C -3.420828 -0.285670 0.000000 0
M  V30 22 C -3.420828 -1.285870 0.000000 0
M  V30 23 C -4.286828 -1.785778 0.000000 0
M  V30 24 C -4.286828 -2.785778 0.000000 0
M  V30 25 C -3.420828 -3.285671 0.000000 0
M  V30 26 C -2.554828 -2.785764 0.000000 0
M  V30 27 C -2.554828 -1.785763 0.000000 0
M  V30 28 C -4.286717 0.214430 0.000000 0
M  V30 29 C -6.884695 -0.285619 0.000000 0
M  V30 30 C -7.750691 0.214481 0.000000 0
M  V30 31 C -8.616695 -0.285619 0.000000 0
M  V30 32 C -9.482691 0.214481 0.000000 0
M  V30 33 O 2.554522 -0.285454 0.000000 0
M  V30 34 C 1.688518 0.214446 0.000000 0
M  V30 35 C 0.822407 -0.285454 0.000000 0
M  V30 36 C -5.152739 -0.285576 0.000000 0
M  V30 37 C -6.018698 0.214431 0.000000 0
M  V30 38 C -6.018698 1.214433 0.000000 0
M  V30 39 C -5.152496 1.714366 0.000000 0
M  V30 40 C -5.152696 2.714368 0.000000 0
M  V30 41 C -6.018498 3.214437 0.000000 0
M  V30 42 C -6.884700 2.714504 0.000000 0
M  V30 43 C -6.884500 1.714502 0.000000 0
M  V30 END ATOM
M  V30 BEGIN BOND
M  V30 1 1 1 2
M  V30 2 2 2 3
M  V30 3 1 3 4
M  V30 4 2 4 5
M  V30 5 1 5 6
M  V30 6 2 6 7
M  V30 7 1 1 8
M  V30 8 1 8 9
M  V30 9 1 9 10
M  V30 10 1 11 12
M  V30 11 1 12 13
M  V30 12 1 13 14
M  V30 13 1 14 15
M  V30 14 1 15 16
M  V30 15 1 15 17
M  V30 16 1 17 18
M  V30 17 1 18 19
M  V30 18 1 12 20
M  V30 19 1 20 21
M  V30 20 1 21 22
M  V30 21 2 22 23
M  V30 22 1 23 24
M  V30 23 2 24 25
M  V30 24 1 25 26
M  V30 25 2 26 27
M  V30 26 1 21 28
M  V30 27 1 29 30
M  V30 28 1 30 31
M  V30 29 1 31 32
M  V30 30 1 7 2
M  V30 31 1 27 22
M  V30 32 1 33 34
M  V30 33 1 34 35
M  V30 34 1 11 35
M  V30 35 1 10 33
M  V30 36 1 36 37
M  V30 37 1 37 38
M  V30 38 2 38 39
M  V30 39 1 39 40
M  V30 40 2 40 41
M  V30 41 1 41 42
M  V30 42 2 42 43
M  V30 43 1 43 38
M  V30 44 1 29 37
M  V30 45 1 28 36
M  V30 END BOND
M  V30 BEGIN SGROUP
M  V30 1 SRU 0 ATOMS=(4 28 29 36 37) CBONDS=(2 44 45) -
M  V30 BRKXYZ=(9 -4.7197 -0.5356 0 -4.7197 0.4644 0 0 0 0) BRKXYZ=(9 -6.4517 --
M  V30 0.5356 0 -6.4517 0.4644 0 0 0 0)
M  V30 2 SRU 0 ATOMS=(4 10 11 33 35) CBONDS=(2 34 35) -
M  V30 BRKXYZ=(9 2.9876 0.4644 0 2.9876 -0.5354 0 0 0 0) BRKXYZ=(9 0.3894 0.46-
M  V30 44 0 0.3894 -0.5354 0 0 0 0)
M  V30 END SGROUP
M  V30 END CTAB
M  END
>  <BIGSMILES_BRACKET_RECORDS_JSON>
{
  "records": [
    {
      "id": 0,
      "bracket_kind": "backbone",
      "pairing_id": "F2/fragments[0]",
      "group_id": "$a:2",
      "ru_midpoint": [
        -5.585693098945102,
        -0.03557243280316086
      ],
      "bond_midpoint": [
        -4.719728059345441,
        -0.035572932808719634
      ],
      "orientation_vector": [
        0.0,
        -1.0
      ],
      "half_bracket_size": 0.5000070589092322,
      "bond": [
        27,
        35
      ],
      "fragment": "F2",
      "backbone": true,
      "suspended_anchor_atom": null,
      "suspended_reason": null,
      "source_label": "F2/fragments[0]",
      "marker_id": "0",
      "side": "left",
      "connection_group": "$a",
      "marker_type_index": 2
    },
    {
      "id": 1,
      "bracket_kind": "backbone",
      "pairing_id": "F2/fragments[0]",
      "group_id": "$a:2",
      "ru_midpoint": [
        -5.585693098945102,
        -0.03557243280316086
      ],
      "bond_midpoint": [
        -6.451696339281608,
        -0.035593990895618696
      ],
      "orientation_vector": [
        0.0,
        -1.0
      ],
      "half_bracket_size": 0.5000070589092322,
      "bond": [
        28,
        36
      ],
      "fragment": "F2",
      "backbone": true,
      "suspended_anchor_atom": null,
      "suspended_reason": null,
      "source_label": "F2/fragments[0]",
      "marker_id": "9",
      "side": "right",
      "connection_group": "$a",
      "marker_type_index": 2
    },
    {
      "id": 2,
      "bracket_kind": "backbone",
      "pairing_id": "F1/fragments[0]",
      "group_id": "<1:3",
      "ru_midpoint": [
        1.6884504542111864,
        0.014486028671507223
      ],
      "bond_midpoint": [
        2.9875530985313112,
        -0.035485188963530076
      ],
      "orientation_vector": [
        0.0,
        1.0
      ],
      "half_bracket_size": 0.49990016001536197,
      "bond": [
        9,
        32
      ],
      "fragment": "F1",
      "backbone": true,
      "suspended_anchor_atom": null,
      "suspended_reason": null,
      "source_label": "F1/fragments[0]",
      "marker_id": "0",
      "side": "left",
      "connection_group": "<1",
      "marker_type_index": 3
    },
    {
      "id": 3,
      "bracket_kind": "backbone",
      "pairing_id": "F1/fragments[0]",
      "group_id": ">1:4",
      "ru_midpoint": [
        1.6884504542111864,
        0.014486028671507223
      ],
      "bond_midpoint": [
        0.389360423916974,
        -0.03551198534868642
      ],
      "orientation_vector": [
        0.0,
        1.0
      ],
      "half_bracket_size": 0.49990016001536197,
      "bond": [
        10,
        34
      ],
      "fragment": "F1",
      "backbone": true,
      "suspended_anchor_atom": null,
      "suspended_reason": null,
      "source_label": "F1/fragments[0]",
      "marker_id": "4",
      "side": "right",
      "connection_group": ">1",
      "marker_type_index": 4
    }
  ]
}
