
     RDKit          2D

  0  0  0  0  0  0  0  0  0  0999 V3000
M  V30 BEGIN CTAB
M  V30 COUNTS 38 40 2 0 0
M  V30 BEGIN ATOM
M  V30 1 C 5.904180 -0.613545 0.000000 0
M  V30 2 C 6.904180 -0.613545 0.000000 0
M  V30 3 C 7.404156 -1.479529 0.000000 0
M  V30 4 C 8.404108 -1.479529 0.000000 0
M  V30 5 C 8.904084 -0.613545 0.000000 0
M  V30 6 C 8.404108 0.252439 0.000000 0
M  V30 7 C 7.404156 0.252439 0.000000 0
M  V30 8 O 5.038175 -0.113445 0.000000 0
M  V30 9 C 4.172179 -0.613545 0.000000 0
M  V30 10 C 3.306175 -0.113445 0.000000 0
M  V30 11 O -0.158095 -0.113499 0.000000 0
M  V30 12 C -1.023976 -0.613599 0.000000 0
M  V30 13 C -1.023976 -1.613599 0.000000 0
M  V30 14 O -1.889976 -2.113707 0.000000 0
M  V30 15 C -2.087032 -0.113499 0.000000 0
M  V30 16 C -3.150081 -0.613599 0.000000 0
M  V30 17 C -3.150081 -1.613799 0.000000 0
M  V30 18 C -4.016081 -2.113707 0.000000 0
M  V30 19 C -4.016081 -3.113707 0.000000 0
M  V30 20 C -3.150081 -3.613600 0.000000 0
M  V30 21 C -2.284080 -3.113692 0.000000 0
M  V30 22 C -2.284081 -2.113692 0.000000 0
M  V30 23 C -4.015970 -0.113499 0.000000 0
M  V30 24 C -6.613947 -0.613548 0.000000 0
M  V30 25 C -7.479943 -0.113448 0.000000 0
M  V30 26 C -8.345948 -0.613548 0.000000 0
M  V30 27 C -9.211944 -0.113448 0.000000 0
M  V30 28 O 2.440113 -0.613383 0.000000 0
M  V30 29 C 1.574109 -0.113483 0.000000 0
M  V30 30 C 0.707997 -0.613383 0.000000 0
M  V30 31 C -4.881992 -0.613505 0.000000 0
M  V30 32 C -5.747951 -0.113498 0.000000 0
M  V30 33 C -5.747951 0.886504 0.000000 0
M  V30 34 C -4.881749 1.386438 0.000000 0
M  V30 35 C -4.881949 2.386439 0.000000 0
M  V30 36 C -5.747751 2.886509 0.000000 0
M  V30 37 C -6.613953 2.386575 0.000000 0
M  V30 38 C -6.613753 1.386574 0.000000 0
M  V30 END ATOM
M  V30 BEGIN BOND
M  V30 1 1 1 2
M  V30 2 2 2 3
M  V30 3 1 3 4
M  V30 4 2 4 5
M  V30 5 1 5 6
M  V30 6 2 6 7
M  V30 7 1 1 8
M  V30 8 1 8 9
M  V30 9 1 9 10
M  V30 10 1 11 12
M  V30 11 1 12 13
M  V30 12 1 13 14
M  V30 13 1 12 15
M  V30 14 1 15 16
M  V30 15 1 16 17
M  V30 16 2 17 18
M  V30 17 1 18 19
M  V30 18 2 19 20
M  V30 19 1 20 21
M  V30 20 2 21 22
M  V30 21 1 16 23
M  V30 22 1 24 25
M  V30 23 1 25 26
M  V30 24 1 26 27
M  V30 25 1 7 2
M  V30 26 1 22 17
M  V30 27 1 28 29
M  V30 28 1 29 30
M  V30 29 1 11 30
M  V30 30 1 10 28
M  V30 31 1 31 32
M  V30 32 1 32 33
M  V30 33 2 33 34
M  V30 34 1 34 35
M  V30 35 2 35 36
M  V30 36 1 36 37
M  V30 37 2 37 38
M  V30 38 1 38 33
M  V30 39 1 24 32
M  V30 40 1 23 31
M  V30 END BOND
M  V30 BEGIN SGROUP
M  V30 1 SRU 0 ATOMS=(4 23 24 31 32) CBONDS=(2 39 40) -
M  V30 BRKXYZ=(9 -4.4490 -0.8635 0 -4.4490 0.1365 0 0 0 0) BRKXYZ=(9 -6.1809 --
M  V30 0.8635 0 -6.1809 0.1365 0 0 0 0)
M  V30 2 SRU 0 ATOMS=(4 10 11 28 30) CBONDS=(2 29 30) -
M  V30 BRKXYZ=(9 2.8731 0.1365 0 2.8731 -0.8633 0 0 0 0) BRKXYZ=(9 0.2750 0.13-
M  V30 65 0 0.2750 -0.8633 0 0 0 0)
M  V30 END SGROUP
M  V30 END CTAB
M  END
>  <BIGSMILES_BRACKET_RECORDS_JSON>
{
  "records": [
    {
      "id": 0,
      "bracket_kind": "backbone",
      "pairing_id": "F2/fragments[0]",
      "group_id": "$a:2",
      "ru_midpoint": [
        -5.314945936149723,
        -0.36350120213978987
      ],
      "bond_midpoint": [
        -4.448980896550062,
        -0.36350170214534866
      ],
      "orientation_vector": [
        0.0,
        -1.0
      ],
      "half_bracket_size": 0.5000070589092322,
      "bond": [
        22,
        30
      ],
      "fragment": "F2",
      "backbone": true,
      "suspended_anchor_atom": null,
      "suspended_reason": null,
      "source_label": "F2/fragments[0]",
      "marker_id": "0",
      "side": "left",
      "connection_group": "$a",
      "marker_type_index": 2
    },
    {
      "id": 1,
      "bracket_kind": "backbone",
      "pairing_id": "F2/fragments[0]",
      "group_id": "$a:2",
      "ru_midpoint": [
        -5.314945936149723,
        -0.36350120213978987
      ],
      "bond_midpoint": [
        -6.180949176486229,
        -0.3635227602322477
      ],
      "orientation_vector": [
        0.0,
        -1.0
      ],
      "half_bracket_size": 0.5000070589092322,
      "bond": [
        23,
        31
      ],
      "fragment": "F2",
      "backbone": true,
      "suspended_anchor_atom": null,
      "suspended_reason": null,
      "source_label": "F2/fragments[0]",
      "marker_id": "9",
      "side": "right",
      "connection_group": "$a",
      "marker_type_index": 2
    },
    {
      "id": 2,
      "bracket_kind": "backbone",
      "pairing_id": "F1/fragments[0]",
      "group_id": "<1:3",
      "ru_midpoint": [
        1.5740413670065676,
        -0.3134427406651218
      ],
      "bond_midpoint": [
        2.8731440113266924,
        -0.3634139583001591
      ],
      "orientation_vector": [
        0.0,
        1.0
      ],
      "half_bracket_size": 0.49990016001536197,
      "bond": [
        9,
        27
      ],
      "fragment": "F1",
      "backbone": true,
      "suspended_anchor_atom": null,
      "suspended_reason": null,
      "source_label": "F1/fragments[0]",
      "marker_id": "0",
      "side": "left",
      "connection_group": "<1",
      "marker_type_index": 3
    },
    {
      "id": 3,
      "bracket_kind": "backbone",
      "pairing_id": "F1/fragments[0]",
      "group_id": ">1:4",
      "ru_midpoint": [
        1.5740413670065676,
        -0.3134427406651218
      ],
      "bond_midpoint": [
        0.27495133671235517,
        -0.36344075468531545
      ],
      "orientation_vector": [
        0.0,
        1.0
      ],
      "half_bracket_size": 0.49990016001536197,
      "bond": [
        10,
        29
      ],
      "fragment": "F1",
      "backbone": true,
      "suspended_anchor_atom": null,
      "suspended_reason": null,
      "source_label": "F1/fragments[0]",
      "marker_id": "4",
      "side": "right",
      "connection_group": ">1",
      "marker_type_index": 4
    }
  ]
}
