
     RDKit          2D

  0  0  0  0  0  0  0  0  0  0999 V3000
M  V30 BEGIN CTAB
M  V30 COUNTS 10 9 1 0 0
M  V30 BEGIN ATOM
M  V30 1 O -3.897057 -0.496666 0.000000 0
M  V30 2 C -3.031061 0.003234 0.000000 0
M  V30 3 C -2.165056 -0.496666 0.000000 0
M  V30 4 O -1.299060 0.003234 0.000000 0
M  V30 5 C 2.164748 0.003288 0.000000 0
M  V30 6 C 3.030752 -0.496612 0.000000 0
M  V30 7 O 3.896748 0.003288 0.000000 0
M  V30 8 C -0.433083 -0.496850 0.000000 0
M  V30 9 C 0.432913 0.003250 0.000000 0
M  V30 10 O 1.298802 -0.496850 0.000000 0
M  V30 END ATOM
M  V30 BEGIN BOND
M  V30 1 1 1 2
M  V30 2 1 2 3
M  V30 3 1 3 4
M  V30 4 1 5 6
M  V30 5 1 6 7
M  V30 6 1 8 9
M  V30 7 1 9 10
M  V30 8 1 4 8
M  V30 9 1 5 10
M  V30 END BOND
M  V30 BEGIN SGROUP
M  V30 1 SRU 0 ATOMS=(4 4 5 8 10) CBONDS=(2 8 9) -
M  V30 BRKXYZ=(9 -0.8661 0.2533 0 -0.8661 -0.7469 0 0 0 0) BRKXYZ=(9 1.7318 0.-
M  V30 2533 0 1.7318 -0.7469 0 0 0 0)
M  V30 END SGROUP
M  V30 END CTAB
M  END
>  <BIGSMILES_BRACKET_RECORDS_JSON>
{
  "records": [
    {
      "id": 0,
      "bracket_kind": "backbone",
      "pairing_id": "F1/fragments[0]",
      "group_id": ">1:4",
      "ru_midpoint": [
        0.43284519370494445,
        -0.19678998400499748
      ],
      "bond_midpoint": [
        -0.8660716305800029,
        -0.24680800121850272
      ],
      "orientation_vector": [
        0.0,
        1.0
      ],
      "half_bracket_size": 0.5001001599500253,
      "bond": [
        3,
        7
      ],
      "fragment": "F1",
      "backbone": true,
      "suspended_anchor_atom": null,
      "suspended_reason": null,
      "source_label": "F1/fragments[0]",
      "marker_id": "0",
      "side": "left",
      "connection_group": ">1",
      "marker_type_index": 4
    },
    {
      "id": 1,
      "bracket_kind": "backbone",
      "pairing_id": "F1/fragments[0]",
      "group_id": "<1:3",
      "ru_midpoint": [
        0.43284519370494445,
        -0.19678998400499748
      ],
      "bond_midpoint": [
        1.7317746213175063,
        -0.2467811941126552
      ],
      "orientation_vector": [
        0.0,
        1.0
      ],
      "half_bracket_size": 0.5001001599500253,
      "bond": [
        4,
        9
      ],
      "fragment": "F1",
      "backbone": true,
      "suspended_anchor_atom": null,
      "suspended_reason": null,
      "source_label": "F1/fragments[0]",
      "marker_id": "4",
      "side": "right",
      "connection_group": "<1",
      "marker_type_index": 3
    }
  ]
}
