
     RDKit          2D

  0  0  0  0  0  0  0  0  0  0999 V3000
M  V30 BEGIN CTAB
M  V30 COUNTS 24 23 1 0 0
M  V30 BEGIN ATOM
M  V30 1 O 8.227574 -0.006458 0.000000 0
M  V30 2 C 9.093570 0.493442 0.000000 0
M  V30 3 O 9.093568 1.493442 0.000000 0
M  V30 4 C 9.959575 -0.006458 0.000000 0
M  V30 5 C 10.825571 0.493442 0.000000 0
M  V30 6 C 11.691575 -0.006458 0.000000 0
M  V30 7 O 11.691548 -1.006459 0.000000 0
M  V30 8 O 12.557687 0.493442 0.000000 0
M  V30 9 C 13.423807 -0.006458 0.000000 0
M  V30 10 C 14.289918 0.493442 0.000000 0
M  V30 11 O 15.156038 -0.006458 0.000000 0
M  V30 12 C 18.619846 -0.006512 0.000000 0
M  V30 13 C 19.485957 0.493388 0.000000 0
M  V30 14 O 20.352077 -0.006512 0.000000 0
M  V30 15 C 21.218189 0.493388 0.000000 0
M  V30 16 O 21.218216 1.493388 0.000000 0
M  V30 17 C 22.084193 -0.006512 0.000000 0
M  V30 18 C 22.950189 0.493388 0.000000 0
M  V30 19 C 23.816194 -0.006512 0.000000 0
M  V30 20 O 23.816196 -1.006512 0.000000 0
M  V30 21 O 24.682190 0.493388 0.000000 0
M  V30 22 C 16.022015 0.493626 0.000000 0
M  V30 23 C 16.888011 -0.006474 0.000000 0
M  V30 24 O 17.753900 0.493626 0.000000 0
M  V30 END ATOM
M  V30 BEGIN BOND
M  V30 1 1 1 2
M  V30 2 2 2 3
M  V30 3 1 2 4
M  V30 4 2 4 5 CFG=2
M  V30 5 1 5 6
M  V30 6 2 6 7
M  V30 7 1 6 8
M  V30 8 1 8 9
M  V30 9 1 9 10
M  V30 10 1 10 11
M  V30 11 1 12 13
M  V30 12 1 13 14
M  V30 13 1 14 15
M  V30 14 2 15 16
M  V30 15 1 15 17
M  V30 16 2 17 18 CFG=2
M  V30 17 1 18 19
M  V30 18 2 19 20
M  V30 19 1 19 21
M  V30 20 1 22 23
M  V30 21 1 23 24
M  V30 22 1 11 22
M  V30 23 1 12 24
M  V30 END BOND
M  V30 BEGIN SGROUP
M  V30 1 SRU 0 ATOMS=(4 11 12 22 24) CBONDS=(2 22 23) -
M  V30 BRKXYZ=(9 15.5890 -0.2565 0 15.5890 0.7437 0 0 0 0) BRKXYZ=(9 18.1869 --
M  V30 0.2565 0 18.1869 0.7437 0 0 0 0)
M  V30 END SGROUP
M  V30 END CTAB
M  END
>  <BIGSMILES_BRACKET_RECORDS_JSON>
{
  "records": [
    {
      "id": 0,
      "bracket_kind": "backbone",
      "pairing_id": "F1/fragments[0]",
      "group_id": "<1:3",
      "ru_midpoint": [
        16.887943478695302,
        0.19356567117917567
      ],
      "bond_midpoint": [
        15.589026654410356,
        0.24358368839268102
      ],
      "orientation_vector": [
        0.0,
        -1.0
      ],
      "half_bracket_size": 0.5001001599500253,
      "bond": [
        10,
        21
      ],
      "fragment": "F1",
      "backbone": true,
      "suspended_anchor_atom": null,
      "suspended_reason": null,
      "source_label": "F1/fragments[0]",
      "marker_id": "0",
      "side": "left",
      "connection_group": "<1",
      "marker_type_index": 3
    },
    {
      "id": 1,
      "bracket_kind": "backbone",
      "pairing_id": "F1/fragments[0]",
      "group_id": ">1:4",
      "ru_midpoint": [
        16.887943478695302,
        0.19356567117917567
      ],
      "bond_midpoint": [
        18.186872906307862,
        0.243556881286834
      ],
      "orientation_vector": [
        0.0,
        -1.0
      ],
      "half_bracket_size": 0.5001001599500253,
      "bond": [
        11,
        23
      ],
      "fragment": "F1",
      "backbone": true,
      "suspended_anchor_atom": null,
      "suspended_reason": null,
      "source_label": "F1/fragments[0]",
      "marker_id": "4",
      "side": "right",
      "connection_group": ">1",
      "marker_type_index": 4
    }
  ]
}
