
     RDKit          2D

  0  0  0  0  0  0  0  0  0  0999 V3000
M  V30 BEGIN CTAB
M  V30 COUNTS 42 43 1 0 0
M  V30 BEGIN ATOM
M  V30 1 C 11.018321 -1.967892 0.000000 0
M  V30 2 C 11.018321 -2.967893 0.000000 0
M  V30 3 O 11.884322 -3.467800 0.000000 0
M  V30 4 O 10.152321 -3.467786 0.000000 0
M  V30 5 S 9.958203 -1.467930 0.000000 0
M  V30 6 C 8.898076 -1.967892 0.000000 0
M  V30 7 S 8.032028 -1.467930 0.000000 0
M  V30 8 C 8.898076 -2.967917 0.000000 0
M  V30 9 C 9.764055 -3.467998 0.000000 0
M  V30 10 C 9.763882 -4.467923 0.000000 0
M  V30 11 C 8.897903 -4.967867 0.000000 0
M  V30 12 C 8.031923 -4.467786 0.000000 0
M  V30 13 C 8.032097 -3.467861 0.000000 0
M  V30 14 C 11.884405 -1.467930 0.000000 0
M  V30 15 C 12.750481 -1.967892 0.000000 0
M  V30 16 O 12.750508 -2.967893 0.000000 0
M  V30 17 O 13.616450 -1.467930 0.000000 0
M  V30 18 C 14.482410 -1.967892 0.000000 0
M  V30 19 C 15.348378 -1.467930 0.000000 0
M  V30 20 O 16.214338 -1.967892 0.000000 0
M  V30 21 C 19.678146 -1.967946 0.000000 0
M  V30 22 C 20.544114 -1.467984 0.000000 0
M  V30 23 O 21.410075 -1.967946 0.000000 0
M  V30 24 C 22.276043 -1.467984 0.000000 0
M  V30 25 O 22.276016 -0.467983 0.000000 0
M  V30 26 C 23.142119 -1.967946 0.000000 0
M  V30 27 C 24.008203 -1.467984 0.000000 0
M  V30 28 C 24.008203 -2.467984 0.000000 0
M  V30 29 O 23.142202 -2.967877 0.000000 0
M  V30 30 O 24.874203 -2.967891 0.000000 0
M  V30 31 S 24.874278 -1.967946 0.000000 0
M  V30 32 C 25.740362 -1.467984 0.000000 0
M  V30 33 S 25.740362 -2.467984 0.000000 0
M  V30 34 C 26.740362 -1.467984 0.000000 0
M  V30 35 C 27.240339 -2.333968 0.000000 0
M  V30 36 C 28.240291 -2.333968 0.000000 0
M  V30 37 C 28.740267 -1.467984 0.000000 0
M  V30 38 C 28.240291 -0.602000 0.000000 0
M  V30 39 C 27.240339 -0.602000 0.000000 0
M  V30 40 C 17.080315 -1.467808 0.000000 0
M  V30 41 C 17.946311 -1.967908 0.000000 0
M  V30 42 O 18.812200 -1.467808 0.000000 0
M  V30 END ATOM
M  V30 BEGIN BOND
M  V30 1 1 1 2
M  V30 2 2 2 3
M  V30 3 1 2 4
M  V30 4 1 1 5
M  V30 5 1 5 6
M  V30 6 2 6 7
M  V30 7 1 6 8
M  V30 8 2 8 9
M  V30 9 1 9 10
M  V30 10 2 10 11
M  V30 11 1 11 12
M  V30 12 2 12 13
M  V30 13 1 1 14
M  V30 14 1 14 15
M  V30 15 2 15 16
M  V30 16 1 15 17
M  V30 17 1 17 18
M  V30 18 1 18 19
M  V30 19 1 19 20
M  V30 20 1 21 22
M  V30 21 1 22 23
M  V30 22 1 23 24
M  V30 23 2 24 25
M  V30 24 1 24 26
M  V30 25 1 26 27
M  V30 26 1 27 28
M  V30 27 2 28 29
M  V30 28 1 28 30
M  V30 29 1 27 31
M  V30 30 1 31 32
M  V30 31 2 32 33
M  V30 32 1 32 34
M  V30 33 2 34 35
M  V30 34 1 35 36
M  V30 35 2 36 37
M  V30 36 1 37 38
M  V30 37 2 38 39
M  V30 38 1 13 8
M  V30 39 1 39 34
M  V30 40 1 40 41
M  V30 41 1 41 42
M  V30 42 1 20 40
M  V30 43 1 21 42
M  V30 END BOND
M  V30 BEGIN SGROUP
M  V30 1 SRU 0 ATOMS=(4 20 21 40 42) CBONDS=(2 42 43) -
M  V30 BRKXYZ=(9 16.6473 -2.2180 0 16.6473 -1.2178 0 0 0 0) BRKXYZ=(9 19.2452 -
M  V30 -2.2180 0 19.2452 -1.2178 0 0 0 0)
M  V30 END SGROUP
M  V30 END CTAB
M  END
>  <BIGSMILES_BRACKET_RECORDS_JSON>
{
  "records": [
    {
      "id": 0,
      "bracket_kind": "backbone",
      "pairing_id": "F1/fragments[0]",
      "group_id": "<1:3",
      "ru_midpoint": [
        17.946243715653758,
        -1.7678684101593114
      ],
      "bond_midpoint": [
        16.647326891368813,
        -1.717850392945806
      ],
      "orientation_vector": [
        0.0,
        -1.0
      ],
      "half_bracket_size": 0.5001001599500253,
      "bond": [
        19,
        39
      ],
      "fragment": "F1",
      "backbone": true,
      "suspended_anchor_atom": null,
      "suspended_reason": null,
      "source_label": "F1/fragments[0]",
      "marker_id": "0",
      "side": "left",
      "connection_group": "<1",
      "marker_type_index": 3
    },
    {
      "id": 1,
      "bracket_kind": "backbone",
      "pairing_id": "F1/fragments[0]",
      "group_id": ">1:4",
      "ru_midpoint": [
        17.946243715653758,
        -1.7678684101593114
      ],
      "bond_midpoint": [
        19.24517314326632,
        -1.7178772000516538
      ],
      "orientation_vector": [
        0.0,
        -1.0
      ],
      "half_bracket_size": 0.5001001599500253,
      "bond": [
        20,
        41
      ],
      "fragment": "F1",
      "backbone": true,
      "suspended_anchor_atom": null,
      "suspended_reason": null,
      "source_label": "F1/fragments[0]",
      "marker_id": "4",
      "side": "right",
      "connection_group": ">1",
      "marker_type_index": 4
    }
  ]
}
