
     RDKit          2D

  0  0  0  0  0  0  0  0  0  0999 V3000
M  V30 BEGIN CTAB
M  V30 COUNTS 84 87 5 0 0
M  V30 BEGIN ATOM
M  V30 1 C 8.227108 0.994334 0.000000 0
M  V30 2 C 9.093113 0.494234 0.000000 0
M  V30 3 C 9.959109 0.994334 0.000000 0
M  V30 4 O 9.959136 1.994335 0.000000 0
M  V30 5 O 10.824998 0.494234 0.000000 0
M  V30 6 C 11.690878 0.994334 0.000000 0
M  V30 7 C 12.556767 0.494234 0.000000 0
M  V30 8 O 13.422648 0.994334 0.000000 0
M  V30 9 C 16.886456 0.994388 0.000000 0
M  V30 10 C 17.752345 0.494288 0.000000 0
M  V30 11 O 18.618225 0.994388 0.000000 0
M  V30 12 C 19.484114 0.494288 0.000000 0
M  V30 13 O 19.484087 -0.505713 0.000000 0
M  V30 14 C 20.350110 0.994388 0.000000 0
M  V30 15 C 21.216115 0.494288 0.000000 0
M  V30 16 C 7.361112 0.494234 0.000000 0
M  V30 17 O 7.361201 -0.505691 0.000000 0
M  V30 18 O 6.495108 0.994134 0.000000 0
M  V30 19 C 5.629112 0.494234 0.000000 0
M  V30 20 C 4.763107 0.994134 0.000000 0
M  V30 21 O -1.298841 0.494047 0.000000 0
M  V30 22 O 3.897133 0.494046 0.000000 0
M  V30 23 C 3.031128 0.994147 0.000000 0
M  V30 24 O 3.031126 1.994147 0.000000 0
M  V30 25 C 2.165132 0.494046 0.000000 0
M  V30 26 C 2.165132 -0.505954 0.000000 0
M  V30 27 O 1.299128 0.994147 0.000000 0
M  V30 28 C 0.433131 0.494046 0.000000 0
M  V30 29 O 0.433134 -0.505954 0.000000 0
M  V30 30 C -0.432873 0.994147 0.000000 0
M  V30 31 C -0.432873 -0.005878 0.000000 0
M  V30 32 S 8.227151 3.726290 0.000000 0
M  V30 33 C 7.727098 4.592391 0.000000 0
M  V30 34 S 6.727092 4.592391 0.000000 0
M  V30 35 C 7.727098 5.592391 0.000000 0
M  V30 36 C 6.861080 6.092387 0.000000 0
M  V30 37 C 6.861080 7.092379 0.000000 0
M  V30 38 C 7.727098 7.592375 0.000000 0
M  V30 39 C 8.593117 7.092379 0.000000 0
M  V30 40 C 8.593117 6.092387 0.000000 0
M  V30 41 C 8.227108 1.994334 0.000000 0
M  V30 42 C 7.727101 2.860293 0.000000 0
M  V30 43 C 6.727099 2.860293 0.000000 0
M  V30 44 C 6.227166 1.994091 0.000000 0
M  V30 45 C 5.227164 1.994291 0.000000 0
M  V30 46 C 4.727095 2.860093 0.000000 0
M  V30 47 C 5.227028 3.726295 0.000000 0
M  V30 48 C 6.227030 3.726095 0.000000 0
M  V30 49 C 14.288625 0.494250 0.000000 0
M  V30 50 C 15.154621 0.994350 0.000000 0
M  V30 51 O 16.020510 0.494250 0.000000 0
M  V30 52 C 21.216115 1.494288 0.000000 0
M  V30 53 O 22.181978 1.753051 0.000000 0
M  V30 54 O 20.716215 2.360292 0.000000 0
M  V30 55 C 21.216115 3.226288 0.000000 0
M  V30 56 C 20.716215 4.092293 0.000000 0
M  V30 57 O 21.216302 10.154241 0.000000 0
M  V30 58 O 21.216302 4.958267 0.000000 0
M  V30 59 C 20.716202 5.824272 0.000000 0
M  V30 60 O 19.716202 5.824274 0.000000 0
M  V30 61 C 21.216302 6.690268 0.000000 0
M  V30 62 C 22.216303 6.690268 0.000000 0
M  V30 63 O 20.716202 7.556272 0.000000 0
M  V30 64 C 21.216302 8.422268 0.000000 0
M  V30 65 O 22.216303 8.422266 0.000000 0
M  V30 66 C 20.716202 9.288273 0.000000 0
M  V30 67 C 21.716227 9.288273 0.000000 0
M  V30 68 S 23.814038 0.994431 0.000000 0
M  V30 69 C 24.680140 0.494378 0.000000 0
M  V30 70 S 24.680140 -0.505629 0.000000 0
M  V30 71 C 25.680140 0.494378 0.000000 0
M  V30 72 C 26.180136 -0.371641 0.000000 0
M  V30 73 C 27.180128 -0.371641 0.000000 0
M  V30 74 C 27.680124 0.494378 0.000000 0
M  V30 75 C 27.180128 1.360396 0.000000 0
M  V30 76 C 26.180136 1.360396 0.000000 0
M  V30 77 C 22.082083 0.994388 0.000000 0
M  V30 78 C 22.948042 0.494381 0.000000 0
M  V30 79 C 22.948042 -0.505621 0.000000 0
M  V30 80 C 22.081840 -1.005555 0.000000 0
M  V30 81 C 22.082040 -2.005556 0.000000 0
M  V30 82 C 22.947842 -2.505626 0.000000 0
M  V30 83 C 23.814044 -2.005692 0.000000 0
M  V30 84 C 23.813844 -1.005691 0.000000 0
M  V30 END ATOM
M  V30 BEGIN BOND
M  V30 1 1 1 2
M  V30 2 1 2 3
M  V30 3 2 3 4
M  V30 4 1 3 5
M  V30 5 1 5 6
M  V30 6 1 6 7
M  V30 7 1 7 8
M  V30 8 1 9 10
M  V30 9 1 10 11
M  V30 10 1 11 12
M  V30 11 2 12 13
M  V30 12 1 12 14
M  V30 13 1 14 15
M  V30 14 2 16 17
M  V30 15 1 16 18
M  V30 16 1 18 19
M  V30 17 1 19 20
M  V30 18 1 22 23
M  V30 19 2 23 24
M  V30 20 1 23 25
M  V30 21 1 25 26
M  V30 22 1 25 27
M  V30 23 1 27 28
M  V30 24 2 28 29
M  V30 25 1 28 30
M  V30 26 1 30 31
M  V30 27 1 20 22
M  V30 28 1 21 30
M  V30 29 1 1 16
M  V30 30 1 32 33
M  V30 31 2 33 34
M  V30 32 1 33 35
M  V30 33 2 35 36
M  V30 34 1 36 37
M  V30 35 2 37 38
M  V30 36 1 38 39
M  V30 37 2 39 40
M  V30 38 1 40 35
M  V30 39 1 41 42
M  V30 40 1 42 43
M  V30 41 2 43 44
M  V30 42 1 44 45
M  V30 43 2 45 46
M  V30 44 1 46 47
M  V30 45 2 47 48
M  V30 46 1 48 43
M  V30 47 1 32 42
M  V30 48 1 1 41
M  V30 49 1 49 50
M  V30 50 1 50 51
M  V30 51 1 8 49
M  V30 52 1 9 51
M  V30 53 2 52 53
M  V30 54 1 52 54
M  V30 55 1 54 55
M  V30 56 1 55 56
M  V30 57 1 58 59
M  V30 58 2 59 60
M  V30 59 1 59 61
M  V30 60 1 61 62
M  V30 61 1 61 63
M  V30 62 1 63 64
M  V30 63 2 64 65
M  V30 64 1 64 66
M  V30 65 1 66 67
M  V30 66 1 56 58
M  V30 67 1 57 66
M  V30 68 1 15 52
M  V30 69 1 68 69
M  V30 70 2 69 70
M  V30 71 1 69 71
M  V30 72 2 71 72
M  V30 73 1 72 73
M  V30 74 2 73 74
M  V30 75 1 74 75
M  V30 76 2 75 76
M  V30 77 1 76 71
M  V30 78 1 77 78
M  V30 79 1 78 79
M  V30 80 2 79 80
M  V30 81 1 80 81
M  V30 82 2 81 82
M  V30 83 1 82 83
M  V30 84 2 83 84
M  V30 85 1 84 79
M  V30 86 1 68 78
M  V30 87 1 15 77
M  V30 END BOND
M  V30 BEGIN SGROUP
M  V30 1 SRU 0 ATOMS=(4 15 68 77 78) CBONDS=(2 86 87) -
M  V30 BRKXYZ=(9 21.6491 1.2443 0 21.6491 0.2443 0 0 0 0) BRKXYZ=(9 23.3810 1.-
M  V30 2444 0 23.3810 0.2444 0 0 0 0)
M  V30 2 SRU 0 ATOMS=(4 56 57 58 66) CBONDS=(2 66 67) -
M  V30 BRKXYZ=(9 20.4662 4.5253 0 21.4664 4.5253 0 0 0 0) BRKXYZ=(9 20.4662 9.-
M  V30 7213 0 21.4664 9.7213 0 0 0 0)
M  V30 3 SRU 0 ATOMS=(4 1 32 41 42) CBONDS=(2 47 48) -
M  V30 BRKXYZ=(9 8.7271 1.4943 0 7.7271 1.4943 0 0 0 0) BRKXYZ=(9 8.4771 3.293-
M  V30 3 0 7.4771 3.2933 0 0 0 0)
M  V30 4 SRU 0 ATOMS=(4 20 21 22 30) CBONDS=(2 27 28) -
M  V30 BRKXYZ=(9 4.3301 1.2442 0 4.3301 0.2440 0 0 0 0) BRKXYZ=(9 -0.8659 1.24-
M  V30 42 0 -0.8659 0.2440 0 0 0 0)
M  V30 5 SRU 0 ATOMS=(4 8 9 49 51) CBONDS=(2 51 52) -
M  V30 BRKXYZ=(9 13.8556 1.2444 0 13.8556 0.2442 0 0 0 0) BRKXYZ=(9 16.4535 1.-
M  V30 2444 0 16.4535 0.2442 0 0 0 0)
M  V30 END SGROUP
M  V30 END CTAB
M  END
>  <BIGSMILES_BRACKET_RECORDS_JSON>
{
  "records": [
    {
      "id": 0,
      "bracket_kind": "backbone",
      "pairing_id": "F9/fragments[0]",
      "group_id": "$a:2",
      "ru_midpoint": [
        22.515036700982954,
        0.7443843222451085
      ],
      "bond_midpoint": [
        21.64909864510019,
        0.7443377717247117
      ],
      "orientation_vector": [
        -0.0,
        1.0
      ],
      "half_bracket_size": 0.5000070589092322,
      "bond": [
        14,
        76
      ],
      "fragment": "F9",
      "backbone": true,
      "suspended_anchor_atom": null,
      "suspended_reason": null,
      "source_label": "F9/fragments[0]",
      "marker_id": "0",
      "side": "left",
      "connection_group": "$a",
      "marker_type_index": 2
    },
    {
      "id": 1,
      "bracket_kind": "backbone",
      "pairing_id": "F9/fragments[0]",
      "group_id": "$a:2",
      "ru_midpoint": [
        22.515036700982954,
        0.7443843222451085
      ],
      "bond_midpoint": [
        23.381039941319465,
        0.7444058803375663
      ],
      "orientation_vector": [
        0.0,
        1.0
      ],
      "half_bracket_size": 0.5000070589092322,
      "bond": [
        67,
        77
      ],
      "fragment": "F9",
      "backbone": true,
      "suspended_anchor_atom": null,
      "suspended_reason": null,
      "source_label": "F9/fragments[0]",
      "marker_id": "9",
      "side": "right",
      "connection_group": "$a",
      "marker_type_index": 2
    },
    {
      "id": 2,
      "bracket_kind": "backbone",
      "pairing_id": "F8/fragments[0]",
      "group_id": "<1:3",
      "ru_midpoint": [
        20.966252263938088,
        7.123266619913068
      ],
      "bond_midpoint": [
        20.96625842994498,
        4.525279961872199
      ],
      "orientation_vector": [
        -1.0,
        0.0
      ],
      "half_bracket_size": 0.500100159950025,
      "bond": [
        55,
        57
      ],
      "fragment": "F8",
      "backbone": true,
      "suspended_anchor_atom": null,
      "suspended_reason": null,
      "source_label": "F8/fragments[0]",
      "marker_id": "0",
      "side": "left",
      "connection_group": "<1",
      "marker_type_index": 3
    },
    {
      "id": 3,
      "bracket_kind": "backbone",
      "pairing_id": "F8/fragments[0]",
      "group_id": ">1:4",
      "ru_midpoint": [
        20.966252263938088,
        7.123266619913068
      ],
      "bond_midpoint": [
        20.966252183922098,
        9.721256790030397
      ],
      "orientation_vector": [
        -1.0,
        0.0
      ],
      "half_bracket_size": 0.500100159950025,
      "bond": [
        56,
        65
      ],
      "fragment": "F8",
      "backbone": true,
      "suspended_anchor_atom": null,
      "suspended_reason": null,
      "source_label": "F8/fragments[0]",
      "marker_id": "11",
      "side": "right",
      "connection_group": ">1",
      "marker_type_index": 4
    },
    {
      "id": 4,
      "bracket_kind": "backbone",
      "pairing_id": "F7/fragments[0]",
      "group_id": "$a:2",
      "ru_midpoint": [
        7.977104745293605,
        2.427288324262832
      ],
      "bond_midpoint": [
        8.227108274748222,
        1.4943342374880322
      ],
      "orientation_vector": [
        1.0,
        0.0
      ],
      "half_bracket_size": 0.5000070589092322,
      "bond": [
        0,
        40
      ],
      "fragment": "F7",
      "backbone": true,
      "suspended_anchor_atom": null,
      "suspended_reason": null,
      "source_label": "F7/fragments[0]",
      "marker_id": "0",
      "side": "left",
      "connection_group": "$a",
      "marker_type_index": 2
    },
    {
      "id": 5,
      "bracket_kind": "backbone",
      "pairing_id": "F7/fragments[0]",
      "group_id": "$a:2",
      "ru_midpoint": [
        7.977104745293605,
        2.427288324262832
      ],
      "bond_midpoint": [
        7.977126303386063,
        3.293291564599338
      ],
      "orientation_vector": [
        1.0,
        0.0
      ],
      "half_bracket_size": 0.5000070589092322,
      "bond": [
        31,
        41
      ],
      "fragment": "F7",
      "backbone": true,
      "suspended_anchor_atom": null,
      "suspended_reason": null,
      "source_label": "F7/fragments[0]",
      "marker_id": "9",
      "side": "right",
      "connection_group": "$a",
      "marker_type_index": 2
    },
    {
      "id": 6,
      "bracket_kind": "backbone",
      "pairing_id": "F6/fragments[0]",
      "group_id": "<1:3",
      "ru_midpoint": [
        1.732133301548874,
        0.7440964895921417
      ],
      "bond_midpoint": [
        4.33011995958974,
        0.744090323585249
      ],
      "orientation_vector": [
        0.0,
        1.0
      ],
      "half_bracket_size": 0.500100159950025,
      "bond": [
        19,
        21
      ],
      "fragment": "F6",
      "backbone": true,
      "suspended_anchor_atom": null,
      "suspended_reason": null,
      "source_label": "F6/fragments[0]",
      "marker_id": "0",
      "side": "left",
      "connection_group": "<1",
      "marker_type_index": 3
    },
    {
      "id": 7,
      "bracket_kind": "backbone",
      "pairing_id": "F6/fragments[0]",
      "group_id": ">1:4",
      "ru_midpoint": [
        1.732133301548874,
        0.7440964895921417
      ],
      "bond_midpoint": [
        -0.8658568685684598,
        0.7440965696081285
      ],
      "orientation_vector": [
        0.0,
        1.0
      ],
      "half_bracket_size": 0.500100159950025,
      "bond": [
        20,
        29
      ],
      "fragment": "F6",
      "backbone": true,
      "suspended_anchor_atom": null,
      "suspended_reason": null,
      "source_label": "F6/fragments[0]",
      "marker_id": "11",
      "side": "right",
      "connection_group": ">1",
      "marker_type_index": 4
    },
    {
      "id": 8,
      "bracket_kind": "backbone",
      "pairing_id": "F3/fragments[0]",
      "group_id": "<1:3",
      "ru_midpoint": [
        15.154553277067844,
        0.7943101759450276
      ],
      "bond_midpoint": [
        13.855636452782898,
        0.7442921587315222
      ],
      "orientation_vector": [
        0.0,
        1.0
      ],
      "half_bracket_size": 0.5001001599500253,
      "bond": [
        7,
        48
      ],
      "fragment": "F3",
      "backbone": true,
      "suspended_anchor_atom": null,
      "suspended_reason": null,
      "source_label": "F3/fragments[0]",
      "marker_id": "0",
      "side": "left",
      "connection_group": "<1",
      "marker_type_index": 3
    },
    {
      "id": 9,
      "bracket_kind": "backbone",
      "pairing_id": "F3/fragments[0]",
      "group_id": ">1:4",
      "ru_midpoint": [
        15.154553277067844,
        0.7943101759450276
      ],
      "bond_midpoint": [
        16.453482704680404,
        0.7443189658373692
      ],
      "orientation_vector": [
        0.0,
        1.0
      ],
      "half_bracket_size": 0.5001001599500253,
      "bond": [
        8,
        50
      ],
      "fragment": "F3",
      "backbone": true,
      "suspended_anchor_atom": null,
      "suspended_reason": null,
      "source_label": "F3/fragments[0]",
      "marker_id": "4",
      "side": "right",
      "connection_group": ">1",
      "marker_type_index": 4
    }
  ]
}
