
     RDKit          2D

  0  0  0  0  0  0  0  0  0  0999 V3000
M  V30 BEGIN CTAB
M  V30 COUNTS 8 7 1 0 0
M  V30 BEGIN ATOM
M  V30 1 H -2.165585 -0.448549 0.000000 0
M  V30 2 H 2.164904 0.051349 0.000000 0
M  V30 3 C -1.299426 0.051349 0.000000 0
M  V30 4 C -0.433268 -0.448549 0.000000 0
M  V30 5 C -0.433268 -1.448545 0.000000 0
M  V30 6 C 0.432703 0.051349 0.000000 0
M  V30 7 C 1.298803 -0.448549 0.000000 0
M  V30 8 C 1.298803 -1.448451 0.000000 0
M  V30 END ATOM
M  V30 BEGIN BOND
M  V30 1 1 3 4
M  V30 2 1 4 5 CFG=3
M  V30 3 1 4 6
M  V30 4 1 6 7
M  V30 5 1 7 8
M  V30 6 1 1 3
M  V30 7 1 7 2 CFG=1
M  V30 END BOND
M  V30 BEGIN SGROUP
M  V30 1 SRU 0 ATOMS=(4 1 2 3 7) CBONDS=(2 6 7) -
M  V30 BRKXYZ=(9 -1.7325 0.3013 0 -1.7325 -0.6985 0 0 0 0) BRKXYZ=(9 1.7319 0.-
M  V30 3013 0 1.7319 -0.6985 0 0 0 0)
M  V30 END SGROUP
M  V30 END CTAB
M  END
>  <BIGSMILES_BRACKET_RECORDS_JSON>
{
  "records": [
    {
      "id": 0,
      "bracket_kind": "backbone",
      "pairing_id": "F1/fragments[0]",
      "group_id": "<1:3",
      "ru_midpoint": [
        -0.00032138447454110874,
        -0.1985515139149947
      ],
      "bond_midpoint": [
        -1.73250542587634,
        -0.1985999999999999
      ],
      "orientation_vector": [
        0.0,
        1.0
      ],
      "half_bracket_size": 0.49989831922890104,
      "bond": [
        0,
        2
      ],
      "fragment": "F1",
      "backbone": true,
      "suspended_anchor_atom": null,
      "suspended_reason": null,
      "source_label": "F1/fragments[0]",
      "marker_id": "0",
      "side": "left",
      "connection_group": "<1",
      "marker_type_index": 3
    },
    {
      "id": 1,
      "bracket_kind": "backbone",
      "pairing_id": "F1/fragments[0]",
      "group_id": ">1:4",
      "ru_midpoint": [
        -0.00032138447454110874,
        -0.1985515139149947
      ],
      "bond_midpoint": [
        1.7318536463826784,
        -0.1985999999999999
      ],
      "orientation_vector": [
        0.0,
        1.0
      ],
      "half_bracket_size": 0.49989831922890104,
      "bond": [
        1,
        6
      ],
      "fragment": "F1",
      "backbone": true,
      "suspended_anchor_atom": null,
      "suspended_reason": null,
      "source_label": "F1/fragments[0]",
      "marker_id": "7",
      "side": "right",
      "connection_group": ">1",
      "marker_type_index": 4
    }
  ]
}
