
     RDKit          2D

  0  0  0  0  0  0  0  0  0  0999 V3000
M  V30 BEGIN CTAB
M  V30 COUNTS 24 23 3 0 0
M  V30 BEGIN ATOM
M  V30 1 H -3.031409 -0.448606 0.000000 0
M  V30 2 H 3.030939 0.051360 0.000000 0
M  V30 3 C -2.165390 0.051406 0.000000 0
M  V30 4 C -1.299372 -0.448606 0.000000 0
M  V30 5 C -1.299372 -1.448631 0.000000 0
M  V30 6 O -2.165351 -1.948575 0.000000 0
M  V30 7 C -2.165524 -2.948499 0.000000 0
M  V30 8 C -3.031503 -3.448443 0.000000 0
M  V30 9 C -3.031676 -4.448368 0.000000 0
M  V30 10 C -3.897656 -4.948312 0.000000 0
M  V30 11 C -3.897829 -5.948237 0.000000 0
M  V30 12 C -4.763808 -6.448181 0.000000 0
M  V30 13 O -0.433316 0.051406 0.000000 0
M  V30 14 C 0.432702 -0.448606 0.000000 0
M  V30 15 C 0.432702 -1.448638 0.000000 0
M  V30 16 O -0.433444 -1.948478 0.000000 0
M  V30 17 C -0.433617 -2.948410 0.000000 0
M  V30 18 C -1.299590 -3.448351 0.000000 0
M  V30 19 C -1.299763 -4.448283 0.000000 0
M  V30 20 C -2.165736 -4.948223 0.000000 0
M  V30 21 C -2.165909 -5.948155 0.000000 0
M  V30 22 C -3.031882 -6.448095 0.000000 0
M  V30 23 C 1.298775 0.051360 0.000000 0
M  V30 24 O 2.164857 -0.448606 0.000000 0
M  V30 END ATOM
M  V30 BEGIN BOND
M  V30 1 1 3 4
M  V30 2 1 4 5
M  V30 3 1 5 6
M  V30 4 1 6 7
M  V30 5 1 7 8
M  V30 6 1 8 9
M  V30 7 1 9 10
M  V30 8 1 10 11
M  V30 9 1 11 12
M  V30 10 1 4 13
M  V30 11 1 14 15
M  V30 12 1 15 16
M  V30 13 1 16 17
M  V30 14 1 17 18
M  V30 15 1 18 19
M  V30 16 1 19 20
M  V30 17 1 20 21
M  V30 18 1 21 22
M  V30 19 1 14 23
M  V30 20 1 23 24
M  V30 21 1 13 14
M  V30 22 1 1 3
M  V30 23 1 2 24
M  V30 END BOND
M  V30 BEGIN SGROUP
M  V30 1 SRU 0 ATOMS=(4 1 3 13 14) CBONDS=(2 21 22) -
M  V30 BRKXYZ=(9 -2.5984 0.3014 0 -2.5984 -0.6986 0 0 0 0) BRKXYZ=(9 -0.0003 0-
M  V30 .3014 0 -0.0003 -0.6986 0 0 0 0)
M  V30 2 SRU 0 ATOMS=(4 2 13 14 24) CBONDS=(2 21 23) -
M  V30 BRKXYZ=(9 -0.0003 0.3014 0 -0.0003 -0.6986 0 0 0 0) BRKXYZ=(9 2.5979 0.-
M  V30 3014 0 2.5979 -0.6986 0 0 0 0)
M  V30 3 SRU 0 ATOMS=(4 1 2 3 24) CBONDS=(2 22 23) -
M  V30 BRKXYZ=(9 -2.5984 6.3010 0 -2.5984 -6.6982 0 0 0 0) BRKXYZ=(9 2.5979 6.-
M  V30 3010 0 2.5979 -6.6982 0 0 0 0)
M  V30 END SGROUP
M  V30 END CTAB
M  END
>  <BIGSMILES_BRACKET_RECORDS_JSON>
{
  "records": [
    {
      "id": 0,
      "bracket_kind": "backbone",
      "pairing_id": "F1/fragments[0]",
      "group_id": "<1:3",
      "ru_midpoint": [
        -1.2993455840683816,
        -0.2485841956671459
      ],
      "bond_midpoint": [
        -2.5983996094977972,
        -0.1986000000000001
      ],
      "orientation_vector": [
        0.0,
        1.0
      ],
      "half_bracket_size": 0.5000123282855893,
      "bond": [
        0,
        2
      ],
      "fragment": "F1",
      "backbone": true,
      "suspended_anchor_atom": null,
      "suspended_reason": null,
      "source_label": "F1/fragments[0]",
      "marker_id": "0",
      "side": "left",
      "connection_group": "<1",
      "marker_type_index": 3
    },
    {
      "id": 1,
      "bracket_kind": "backbone",
      "pairing_id": "F1/fragments[0]",
      "group_id": ">1:4",
      "ru_midpoint": [
        -1.2993455840683816,
        -0.2485841956671459
      ],
      "bond_midpoint": [
        -0.00030724751913258075,
        -0.1986000000000001
      ],
      "orientation_vector": [
        0.0,
        1.0
      ],
      "half_bracket_size": 0.5000123282855893,
      "bond": [
        12,
        13
      ],
      "fragment": "F1",
      "backbone": true,
      "suspended_anchor_atom": null,
      "suspended_reason": null,
      "source_label": "F1/fragments[0]",
      "marker_id": "12",
      "side": "right",
      "connection_group": ">1",
      "marker_type_index": 4
    },
    {
      "id": 2,
      "bracket_kind": "backbone",
      "pairing_id": "F1/fragments[1]",
      "group_id": "<1:3",
      "ru_midpoint": [
        1.2987993698874827,
        -0.14862044260590548
      ],
      "bond_midpoint": [
        -0.00030724751913258075,
        -0.1986000000000001
      ],
      "orientation_vector": [
        0.0,
        1.0
      ],
      "half_bracket_size": 0.5000123282855893,
      "bond": [
        12,
        13
      ],
      "fragment": "F1",
      "backbone": true,
      "suspended_anchor_atom": null,
      "suspended_reason": null,
      "source_label": "F1/fragments[1]",
      "marker_id": "0",
      "side": "left",
      "connection_group": "<1",
      "marker_type_index": 3
    },
    {
      "id": 3,
      "bracket_kind": "backbone",
      "pairing_id": "F1/fragments[1]",
      "group_id": ">1:4",
      "ru_midpoint": [
        1.2987993698874827,
        -0.14862044260590548
      ],
      "bond_midpoint": [
        2.597898477427055,
        -0.19862319982195498
      ],
      "orientation_vector": [
        0.0,
        1.0
      ],
      "half_bracket_size": 0.5000123282855893,
      "bond": [
        1,
        23
      ],
      "fragment": "F1",
      "backbone": true,
      "suspended_anchor_atom": null,
      "suspended_reason": null,
      "source_label": "F1/fragments[1]",
      "marker_id": "12",
      "side": "right",
      "connection_group": ">1",
      "marker_type_index": 4
    },
    {
      "id": 4,
      "bracket_kind": "backbone",
      "pairing_id": "F1/connected",
      "group_id": "$overall",
      "ru_midpoint": [
        -0.00026290142782570136,
        -0.1985883983976828
      ],
      "bond_midpoint": [
        -2.5983996094977972,
        -0.1986000000000001
      ],
      "orientation_vector": [
        0.0,
        1.0
      ],
      "half_bracket_size": 6.499586820602781,
      "bond": [
        0,
        2
      ],
      "fragment": "F1",
      "backbone": true,
      "suspended_anchor_atom": null,
      "suspended_reason": null,
      "source_label": "F1/connected",
      "marker_id": "connected-overall-left",
      "side": "left",
      "connection_group": "$overall",
      "marker_type_index": null
    },
    {
      "id": 5,
      "bracket_kind": "backbone",
      "pairing_id": "F1/connected",
      "group_id": "$overall",
      "ru_midpoint": [
        -0.00026290142782570136,
        -0.1985883983976828
      ],
      "bond_midpoint": [
        2.597898477427055,
        -0.19862319982195498
      ],
      "orientation_vector": [
        0.0,
        1.0
      ],
      "half_bracket_size": 6.499586820602781,
      "bond": [
        1,
        23
      ],
      "fragment": "F1",
      "backbone": true,
      "suspended_anchor_atom": null,
      "suspended_reason": null,
      "source_label": "F1/connected",
      "marker_id": "connected-overall-right",
      "side": "right",
      "connection_group": "$overall",
      "marker_type_index": null
    }
  ]
}
