
     RDKit          2D

  0  0  0  0  0  0  0  0  0  0999 V3000
M  V30 BEGIN CTAB
M  V30 COUNTS 20 19 3 0 0
M  V30 BEGIN ATOM
M  V30 1 H -3.031409 -0.448606 0.000000 0
M  V30 2 H 3.030939 0.051360 0.000000 0
M  V30 3 C -2.165390 0.051406 0.000000 0
M  V30 4 C -1.299372 -0.448606 0.000000 0
M  V30 5 C -1.299372 -1.448631 0.000000 0
M  V30 6 O -2.165524 -1.948475 0.000000 0
M  V30 7 C -2.165524 -2.948499 0.000000 0
M  V30 8 C -3.031676 -3.448343 0.000000 0
M  V30 9 C -3.031676 -4.448368 0.000000 0
M  V30 10 C -3.897829 -4.948212 0.000000 0
M  V30 11 O -0.433316 0.051406 0.000000 0
M  V30 12 C 0.432702 -0.448606 0.000000 0
M  V30 13 C 0.432702 -1.448538 0.000000 0
M  V30 14 O -0.433184 -1.948628 0.000000 0
M  V30 15 C -0.433184 -2.948560 0.000000 0
M  V30 16 C -1.299071 -3.448651 0.000000 0
M  V30 17 C -1.299071 -4.448583 0.000000 0
M  V30 18 C -2.164957 -4.948673 0.000000 0
M  V30 19 C 1.298775 0.051360 0.000000 0
M  V30 20 O 2.164857 -0.448606 0.000000 0
M  V30 END ATOM
M  V30 BEGIN BOND
M  V30 1 1 3 4
M  V30 2 1 4 5
M  V30 3 1 5 6
M  V30 4 1 6 7
M  V30 5 1 7 8
M  V30 6 1 8 9
M  V30 7 1 9 10
M  V30 8 1 4 11
M  V30 9 1 12 13
M  V30 10 1 13 14
M  V30 11 1 14 15
M  V30 12 1 15 16
M  V30 13 1 16 17
M  V30 14 1 17 18
M  V30 15 1 12 19
M  V30 16 1 19 20
M  V30 17 1 11 12
M  V30 18 1 1 3
M  V30 19 1 2 20
M  V30 END BOND
M  V30 BEGIN SGROUP
M  V30 1 SRU 0 ATOMS=(4 1 3 11 12) CBONDS=(2 17 18) -
M  V30 BRKXYZ=(9 -2.5984 0.3014 0 -2.5984 -0.6986 0 0 0 0) BRKXYZ=(9 -0.0003 0-
M  V30 .3014 0 -0.0003 -0.6986 0 0 0 0)
M  V30 2 SRU 0 ATOMS=(4 2 11 12 20) CBONDS=(2 17 19) -
M  V30 BRKXYZ=(9 -0.0003 0.3014 0 -0.0003 -0.6986 0 0 0 0) BRKXYZ=(9 2.5979 0.-
M  V30 3014 0 2.5979 -0.6986 0 0 0 0)
M  V30 3 SRU 0 ATOMS=(4 1 2 3 20) CBONDS=(2 18 19) -
M  V30 BRKXYZ=(9 -2.5984 4.8015 0 -2.5984 -5.1987 0 0 0 0) BRKXYZ=(9 2.5979 4.-
M  V30 8015 0 2.5979 -5.1987 0 0 0 0)
M  V30 END SGROUP
M  V30 END CTAB
M  END
>  <BIGSMILES_BRACKET_RECORDS_JSON>
{
  "records": [
    {
      "id": 0,
      "bracket_kind": "backbone",
      "pairing_id": "F1/fragments[0]",
      "group_id": "<1:3",
      "ru_midpoint": [
        -1.2993455840683825,
        -0.2485841956671458
      ],
      "bond_midpoint": [
        -2.5983996094977977,
        -0.1985999999999999
      ],
      "orientation_vector": [
        0.0,
        1.0
      ],
      "half_bracket_size": 0.5000123282855891,
      "bond": [
        0,
        2
      ],
      "fragment": "F1",
      "backbone": true,
      "suspended_anchor_atom": null,
      "suspended_reason": null,
      "source_label": "F1/fragments[0]",
      "marker_id": "0",
      "side": "left",
      "connection_group": "<1",
      "marker_type_index": 3
    },
    {
      "id": 1,
      "bracket_kind": "backbone",
      "pairing_id": "F1/fragments[0]",
      "group_id": ">1:4",
      "ru_midpoint": [
        -1.2993455840683825,
        -0.2485841956671458
      ],
      "bond_midpoint": [
        -0.00030724751913302484,
        -0.1985999999999999
      ],
      "orientation_vector": [
        0.0,
        1.0
      ],
      "half_bracket_size": 0.5000123282855891,
      "bond": [
        10,
        11
      ],
      "fragment": "F1",
      "backbone": true,
      "suspended_anchor_atom": null,
      "suspended_reason": null,
      "source_label": "F1/fragments[0]",
      "marker_id": "10",
      "side": "right",
      "connection_group": ">1",
      "marker_type_index": 4
    },
    {
      "id": 2,
      "bracket_kind": "backbone",
      "pairing_id": "F1/fragments[1]",
      "group_id": "<1:3",
      "ru_midpoint": [
        1.2987993698874816,
        -0.14862044260590476
      ],
      "bond_midpoint": [
        -0.00030724751913302484,
        -0.1985999999999999
      ],
      "orientation_vector": [
        0.0,
        1.0
      ],
      "half_bracket_size": 0.5000123282855891,
      "bond": [
        10,
        11
      ],
      "fragment": "F1",
      "backbone": true,
      "suspended_anchor_atom": null,
      "suspended_reason": null,
      "source_label": "F1/fragments[1]",
      "marker_id": "0",
      "side": "left",
      "connection_group": "<1",
      "marker_type_index": 3
    },
    {
      "id": 3,
      "bracket_kind": "backbone",
      "pairing_id": "F1/fragments[1]",
      "group_id": ">1:4",
      "ru_midpoint": [
        1.2987993698874816,
        -0.14862044260590476
      ],
      "bond_midpoint": [
        2.5978984774270546,
        -0.19862319982195475
      ],
      "orientation_vector": [
        0.0,
        1.0
      ],
      "half_bracket_size": 0.5000123282855891,
      "bond": [
        1,
        19
      ],
      "fragment": "F1",
      "backbone": true,
      "suspended_anchor_atom": null,
      "suspended_reason": null,
      "source_label": "F1/fragments[1]",
      "marker_id": "10",
      "side": "right",
      "connection_group": ">1",
      "marker_type_index": 4
    },
    {
      "id": 4,
      "bracket_kind": "backbone",
      "pairing_id": "F1/connected",
      "group_id": "$overall",
      "ru_midpoint": [
        -0.00026290142782503523,
        -0.19858839839768286
      ],
      "bond_midpoint": [
        -2.5983996094977977,
        -0.1985999999999999
      ],
      "orientation_vector": [
        0.0,
        1.0
      ],
      "half_bracket_size": 5.000079093282707,
      "bond": [
        0,
        2
      ],
      "fragment": "F1",
      "backbone": true,
      "suspended_anchor_atom": null,
      "suspended_reason": null,
      "source_label": "F1/connected",
      "marker_id": "connected-overall-left",
      "side": "left",
      "connection_group": "$overall",
      "marker_type_index": null
    },
    {
      "id": 5,
      "bracket_kind": "backbone",
      "pairing_id": "F1/connected",
      "group_id": "$overall",
      "ru_midpoint": [
        -0.00026290142782503523,
        -0.19858839839768286
      ],
      "bond_midpoint": [
        2.5978984774270546,
        -0.19862319982195475
      ],
      "orientation_vector": [
        0.0,
        1.0
      ],
      "half_bracket_size": 5.000079093282707,
      "bond": [
        1,
        19
      ],
      "fragment": "F1",
      "backbone": true,
      "suspended_anchor_atom": null,
      "suspended_reason": null,
      "source_label": "F1/connected",
      "marker_id": "connected-overall-right",
      "side": "right",
      "connection_group": "$overall",
      "marker_type_index": null
    }
  ]
}
