
     RDKit          2D

  0  0  0  0  0  0  0  0  0  0999 V3000
M  V30 BEGIN CTAB
M  V30 COUNTS 31 30 1 0 0
M  V30 BEGIN ATOM
M  V30 1 H -8.082303 -0.448583 0.000000 0
M  V30 2 H 8.081797 0.051383 0.000000 0
M  V30 3 C -7.216229 0.051383 0.000000 0
M  V30 4 C -6.350156 -0.448583 0.000000 0
M  V30 5 N -5.484110 0.051383 0.000000 0
M  V30 6 C -5.484110 -0.948549 0.000000 0
M  V30 7 C -6.349997 -1.448639 0.000000 0
M  V30 8 N -6.349997 -2.448571 0.000000 0
M  V30 9 C -4.618152 -0.448583 0.000000 0
M  V30 10 C -3.752186 0.051383 0.000000 0
M  V30 11 N -2.886227 -0.448583 0.000000 0
M  V30 12 C -2.020261 0.051383 0.000000 0
M  V30 13 C -1.154303 -0.448583 0.000000 0
M  V30 14 N -0.288336 0.051383 0.000000 0
M  V30 15 C -0.288336 -0.948617 0.000000 0
M  V30 16 C 0.577664 -1.448710 0.000000 0
M  V30 17 N 0.577664 -2.448711 0.000000 0
M  V30 18 C 1.443664 -2.948604 0.000000 0
M  V30 19 C 1.443664 -3.948604 0.000000 0
M  V30 20 N 2.309664 -4.448697 0.000000 0
M  V30 21 C 2.164700 -0.448583 0.000000 0
M  V30 22 C 3.030782 0.051383 0.000000 0
M  V30 23 N 5.483819 -0.448583 0.000000 0
M  V30 24 C 5.483819 -1.954865 0.000000 0
M  V30 25 N 4.617672 -2.454705 0.000000 0
M  V30 26 C 4.617672 -3.454737 0.000000 0
M  V30 27 N 3.751526 -3.954578 0.000000 0
M  V30 28 C 3.751700 -1.954614 0.000000 0
M  V30 29 N 3.751873 -0.954682 0.000000 0
M  V30 30 C 6.349864 0.051383 0.000000 0
M  V30 31 C 7.215830 -0.448583 0.000000 0
M  V30 END ATOM
M  V30 BEGIN BOND
M  V30 1 1 3 4
M  V30 2 1 4 5
M  V30 3 1 5 6
M  V30 4 1 6 7
M  V30 5 1 7 8
M  V30 6 1 5 9
M  V30 7 1 9 10
M  V30 8 1 10 11
M  V30 9 1 11 12
M  V30 10 1 12 13
M  V30 11 1 13 14
M  V30 12 1 14 15
M  V30 13 1 15 16
M  V30 14 1 16 17
M  V30 15 1 17 18
M  V30 16 1 18 19
M  V30 17 1 19 20
M  V30 18 1 14 21
M  V30 19 1 21 22
M  V30 20 1 22 23
M  V30 21 1 23 24
M  V30 22 1 24 25
M  V30 23 1 25 26
M  V30 24 1 26 27
M  V30 25 1 25 28
M  V30 26 1 28 29
M  V30 27 1 23 30
M  V30 28 1 30 31
M  V30 29 1 1 3
M  V30 30 1 2 31
M  V30 END BOND
M  V30 BEGIN SGROUP
M  V30 1 SRU 0 ATOMS=(4 1 2 3 31) CBONDS=(2 29 30) -
M  V30 BRKXYZ=(9 -7.6493 0.3014 0 -7.6493 -0.6986 0 0 0 0) BRKXYZ=(9 7.6488 0.-
M  V30 3014 0 7.6488 -0.6986 0 0 0 0)
M  V30 END SGROUP
M  V30 END CTAB
M  END
>  <BIGSMILES_BRACKET_RECORDS_JSON>
{
  "records": [
    {
      "id": 0,
      "bracket_kind": "backbone",
      "pairing_id": "F1/fragments[0]",
      "group_id": "$a:2",
      "ru_midpoint": [
        -0.5953888348741423,
        -0.1986000000000013
      ],
      "bond_midpoint": [
        -7.649266014331495,
        -0.19859999999999967
      ],
      "orientation_vector": [
        0.0,
        1.0
      ],
      "half_bracket_size": 0.49996592864168,
      "bond": [
        0,
        2
      ],
      "fragment": "F1",
      "backbone": true,
      "suspended_anchor_atom": null,
      "suspended_reason": null,
      "source_label": "F1/fragments[0]",
      "marker_id": "0",
      "side": "left",
      "connection_group": "$a",
      "marker_type_index": 2
    },
    {
      "id": 1,
      "bracket_kind": "backbone",
      "pairing_id": "F1/fragments[0]",
      "group_id": "$a:2",
      "ru_midpoint": [
        -0.5953888348741423,
        -0.1986000000000013
      ],
      "bond_midpoint": [
        7.648813567529846,
        -0.198599999999999
      ],
      "orientation_vector": [
        0.0,
        1.0
      ],
      "half_bracket_size": 0.49996592864168,
      "bond": [
        1,
        30
      ],
      "fragment": "F1",
      "backbone": true,
      "suspended_anchor_atom": null,
      "suspended_reason": null,
      "source_label": "F1/fragments[0]",
      "marker_id": "30",
      "side": "right",
      "connection_group": "$a",
      "marker_type_index": 2
    }
  ]
}
