
     RDKit          2D

  0  0  0  0  0  0  0  0  0  0999 V3000
M  V30 BEGIN CTAB
M  V30 COUNTS 12 11 1 0 0
M  V30 BEGIN ATOM
M  V30 1 H -3.464717 -0.448551 0.000000 0
M  V30 2 H 3.464043 -0.448551 0.000000 0
M  V30 3 O -2.598496 0.051351 0.000000 0
M  V30 4 C -1.732276 -0.448551 0.000000 0
M  V30 5 C -1.732276 -1.448553 0.000000 0
M  V30 6 C -0.866177 0.051351 0.000000 0
M  V30 7 C -0.000042 -0.448551 0.000000 0
M  V30 8 C 0.866057 0.051351 0.000000 0
M  V30 9 C 1.732077 -0.448551 0.000000 0
M  V30 10 C 1.732077 -1.448553 0.000000 0
M  V30 11 C 2.598060 0.051351 0.000000 0
M  V30 12 O 2.598051 1.051353 0.000000 0
M  V30 END ATOM
M  V30 BEGIN BOND
M  V30 1 1 3 4
M  V30 2 1 4 5
M  V30 3 1 4 6
M  V30 4 1 6 7
M  V30 5 1 7 8
M  V30 6 1 8 9
M  V30 7 1 9 10
M  V30 8 1 9 11
M  V30 9 2 11 12
M  V30 10 1 1 3
M  V30 11 1 2 11
M  V30 END BOND
M  V30 BEGIN SGROUP
M  V30 1 SRU 0 ATOMS=(4 1 2 3 11) CBONDS=(2 10 11) -
M  V30 BRKXYZ=(9 -3.0316 0.3013 0 -3.0316 -0.6985 0 0 0 0) BRKXYZ=(9 3.0311 0.-
M  V30 3013 0 3.0311 -0.6985 0 0 0 0)
M  V30 END SGROUP
M  V30 END CTAB
M  END
>  <BIGSMILES_BRACKET_RECORDS_JSON>
{
  "records": [
    {
      "id": 0,
      "bracket_kind": "backbone",
      "pairing_id": "F1/fragments[0]",
      "group_id": "<1:3",
      "ru_midpoint": [
        -0.0002563005307479882,
        -0.22633726671889698
      ],
      "bond_midpoint": [
        -3.031606507778772,
        -0.1986
      ],
      "orientation_vector": [
        0.0,
        1.0
      ],
      "half_bracket_size": 0.4999011961278877,
      "bond": [
        0,
        2
      ],
      "fragment": "F1",
      "backbone": true,
      "suspended_anchor_atom": null,
      "suspended_reason": null,
      "source_label": "F1/fragments[0]",
      "marker_id": "0",
      "side": "left",
      "connection_group": "<1",
      "marker_type_index": 3
    },
    {
      "id": 1,
      "bracket_kind": "backbone",
      "pairing_id": "F1/fragments[0]",
      "group_id": ">1:4",
      "ru_midpoint": [
        -0.0002563005307479882,
        -0.22633726671889698
      ],
      "bond_midpoint": [
        3.031051510243687,
        -0.19860000000000008
      ],
      "orientation_vector": [
        0.0,
        1.0
      ],
      "half_bracket_size": 0.4999011961278877,
      "bond": [
        1,
        10
      ],
      "fragment": "F1",
      "backbone": true,
      "suspended_anchor_atom": null,
      "suspended_reason": null,
      "source_label": "F1/fragments[0]",
      "marker_id": "11",
      "side": "right",
      "connection_group": ">1",
      "marker_type_index": 4
    }
  ]
}
