
     RDKit          2D

  0  0  0  0  0  0  0  0  0  0999 V3000
M  V30 BEGIN CTAB
M  V30 COUNTS 33 32 1 0 0
M  V30 BEGIN ATOM
M  V30 1 H -2.807398 0.051302 0.000000 0
M  V30 2 H 4.049362 -0.448555 0.000000 0
M  V30 3 C -0.166701 -0.448555 0.000000 0
M  V30 4 F -0.166701 0.538774 0.000000 0
M  V30 5 C -0.166701 -1.458789 0.000000 0
M  V30 6 C 0.699911 -1.978240 0.000000 0
M  V30 7 F 1.699810 -1.994757 0.000000 0
M  V30 8 F 1.215366 -1.135796 0.000000 0
M  V30 9 C 0.685835 -2.973159 0.000000 0
M  V30 10 C 1.544152 -3.479742 0.000000 0
M  V30 11 F 1.035752 -4.340044 0.000000 0
M  V30 12 F 2.035911 -4.349162 0.000000 0
M  V30 13 F 2.414382 -2.986789 0.000000 0
M  V30 14 O -0.186977 -3.463890 0.000000 0
M  V30 15 C -1.050477 -2.955264 0.000000 0
M  V30 16 F -1.544031 -2.085230 0.000000 0
M  V30 17 F -0.543864 -2.093348 0.000000 0
M  V30 18 C -1.921308 -3.448412 0.000000 0
M  V30 19 F -2.414463 -2.578381 0.000000 0
M  V30 20 F -2.921675 -3.440292 0.000000 0
M  V30 21 S -1.929825 -4.448376 0.000000 0
M  V30 22 O -2.929792 -4.440259 0.000000 0
M  V30 23 O -0.929860 -4.456693 0.000000 0
M  V30 24 O -1.937944 -5.448543 0.000000 0 CHG=-1
M  V30 25 C 1.941330 0.051047 0.000000 0
M  V30 26 F 1.941330 -0.949097 0.000000 0
M  V30 27 O 1.941330 1.050063 0.000000 0
M  V30 28 C -1.941197 -0.448502 0.000000 0
M  V30 29 F -1.941197 0.551480 0.000000 0
M  V30 30 F -1.941197 -1.448569 0.000000 0
M  V30 31 C -1.074996 0.051302 0.000000 0
M  V30 32 F -1.074996 1.051285 0.000000 0
M  V30 33 F -1.074996 -0.948765 0.000000 0
M  V30 END ATOM
M  V30 BEGIN BOND
M  V30 1 1 3 4
M  V30 2 1 3 5
M  V30 3 1 5 6
M  V30 4 1 6 7
M  V30 5 1 6 8
M  V30 6 1 6 9
M  V30 7 1 9 10
M  V30 8 1 10 11
M  V30 9 1 10 12
M  V30 10 1 10 13
M  V30 11 1 9 14
M  V30 12 1 14 15
M  V30 13 1 15 16
M  V30 14 1 15 17
M  V30 15 1 15 18
M  V30 16 1 18 19
M  V30 17 1 18 20
M  V30 18 1 18 21
M  V30 19 2 21 22
M  V30 20 2 21 23
M  V30 21 1 21 24
M  V30 22 1 3 25
M  V30 23 1 25 26
M  V30 24 1 25 27
M  V30 25 1 28 29
M  V30 26 1 28 30
M  V30 27 1 28 31
M  V30 28 1 31 32
M  V30 29 1 31 33
M  V30 30 1 3 31
M  V30 31 1 1 28
M  V30 32 1 2 25
M  V30 END BOND
M  V30 BEGIN SGROUP
M  V30 1 SRU 0 ATOMS=(4 1 3 28 31) CBONDS=(2 30 31) -
M  V30 BRKXYZ=(9 -2.3743 0.3012 0 -2.3743 -0.6984 0 0 0 0) BRKXYZ=(9 -0.6208 0-
M  V30 .3012 0 -0.6208 -0.6984 0 0 0 0)
M  V30 END SGROUP
M  V30 END CTAB
M  END
>  <BIGSMILES_BRACKET_RECORDS_JSON>
{
  "records": [
    {
      "id": 0,
      "bracket_kind": "backbone",
      "pairing_id": "F2/fragments[0]",
      "group_id": "$a:2",
      "ru_midpoint": [
        -1.5081433368404875,
        -0.19862658883905884
      ],
      "bond_midpoint": [
        -2.374297743734823,
        -0.19860000000000033
      ],
      "orientation_vector": [
        0.0,
        1.0
      ],
      "half_bracket_size": 0.4998044031181985,
      "bond": [
        0,
        27
      ],
      "fragment": "F2",
      "backbone": true,
      "suspended_anchor_atom": null,
      "suspended_reason": null,
      "source_label": "F2/fragments[0]",
      "marker_id": "0",
      "side": "left",
      "connection_group": "$a",
      "marker_type_index": 2
    },
    {
      "id": 1,
      "bracket_kind": "backbone",
      "pairing_id": "F2/fragments[0]",
      "group_id": "$a:2",
      "ru_midpoint": [
        -1.5081433368404875,
        -0.19862658883905884
      ],
      "bond_midpoint": [
        -0.6208483869892859,
        -0.19862658883905793
      ],
      "orientation_vector": [
        0.0,
        1.0
      ],
      "half_bracket_size": 0.4998044031181985,
      "bond": [
        2,
        30
      ],
      "fragment": "F2",
      "backbone": true,
      "suspended_anchor_atom": null,
      "suspended_reason": null,
      "source_label": "F2/fragments[0]",
      "marker_id": "7",
      "side": "right",
      "connection_group": "$a",
      "marker_type_index": 2
    }
  ]
}
