
     RDKit          2D

  0  0  0  0  0  0  0  0  0  0999 V3000
M  V30 BEGIN CTAB
M  V30 COUNTS 29 31 1 0 0
M  V30 BEGIN ATOM
M  V30 1 H -4.165224 -0.881594 0.000000 0
M  V30 2 H 4.164696 -0.381621 0.000000 0
M  V30 3 Si -3.299181 -0.381621 0.000000 0 VAL=4
M  V30 4 C -3.299181 -1.381623 0.000000 0
M  V30 5 C -4.165183 -1.881556 0.000000 0
M  V30 6 C -4.165183 -2.881558 0.000000 0
M  V30 7 C -3.299181 -3.381427 0.000000 0
M  V30 8 C -2.433180 -2.881494 0.000000 0
M  V30 9 C -2.433180 -1.881492 0.000000 0
M  V30 10 C -3.299181 0.618325 0.000000 0
M  V30 11 C -2.433304 1.118410 0.000000 0
M  V30 12 C -2.433304 2.118356 0.000000 0
M  V30 13 C -3.299255 2.618491 0.000000 0
M  V30 14 C -4.165132 2.118406 0.000000 0
M  V30 15 C -4.165231 1.118286 0.000000 0
M  V30 16 O -2.433138 -0.881594 0.000000 0
M  V30 17 Si -1.567196 -0.381621 0.000000 0 VAL=4
M  V30 18 C -1.567196 -1.381635 0.000000 0
M  V30 19 C -1.567196 0.618382 0.000000 0
M  V30 20 C -0.567196 -0.381621 0.000000 0
M  V30 21 C -0.067203 0.484394 0.000000 0
M  V30 22 C 0.932785 0.484394 0.000000 0
M  V30 23 C 1.432778 -0.381621 0.000000 0
M  V30 24 C 0.932785 -1.247635 0.000000 0
M  V30 25 C -0.067203 -1.247635 0.000000 0
M  V30 26 Si 2.432778 -0.381621 0.000000 0 VAL=4
M  V30 27 C 2.432778 -1.381623 0.000000 0
M  V30 28 C 2.432778 0.618325 0.000000 0
M  V30 29 O 3.298737 0.118386 0.000000 0
M  V30 END ATOM
M  V30 BEGIN BOND
M  V30 1 1 3 4
M  V30 2 2 4 5
M  V30 3 1 5 6
M  V30 4 2 6 7
M  V30 5 1 7 8
M  V30 6 2 8 9
M  V30 7 1 3 10
M  V30 8 2 10 11
M  V30 9 1 11 12
M  V30 10 2 12 13
M  V30 11 1 13 14
M  V30 12 2 14 15
M  V30 13 1 3 16
M  V30 14 1 16 17
M  V30 15 1 17 18
M  V30 16 1 17 19
M  V30 17 1 17 20
M  V30 18 2 20 21
M  V30 19 1 21 22
M  V30 20 2 22 23
M  V30 21 1 23 24
M  V30 22 2 24 25
M  V30 23 1 23 26
M  V30 24 1 26 27
M  V30 25 1 26 28
M  V30 26 1 26 29
M  V30 27 1 9 4
M  V30 28 1 15 10
M  V30 29 1 25 20
M  V30 30 1 1 3
M  V30 31 1 2 29
M  V30 END BOND
M  V30 BEGIN SGROUP
M  V30 1 SRU 0 ATOMS=(4 1 2 3 29) CBONDS=(2 30 31) -
M  V30 BRKXYZ=(9 -3.7322 1.1004 0 -3.7322 -2.3636 0 0 0 0) BRKXYZ=(9 3.7317 1.-
M  V30 6004 0 3.7317 -1.8636 0 0 0 0)
M  V30 END SGROUP
M  V30 END CTAB
M  END
>  <BIGSMILES_BRACKET_RECORDS_JSON>
{
  "records": [
    {
      "id": 0,
      "bracket_kind": "backbone",
      "pairing_id": "F1/fragments[0]",
      "group_id": "<1:3",
      "ru_midpoint": [
        0.07906326414756215,
        -0.4200645529218012
      ],
      "bond_midpoint": [
        -3.7322027011189114,
        -0.6316072021747683
      ],
      "orientation_vector": [
        0.0,
        1.0
      ],
      "half_bracket_size": 1.7320288086990763,
      "bond": [
        0,
        2
      ],
      "fragment": "F1",
      "backbone": true,
      "suspended_anchor_atom": null,
      "suspended_reason": null,
      "source_label": "F1/fragments[0]",
      "marker_id": "0",
      "side": "left",
      "connection_group": "<1",
      "marker_type_index": 3
    },
    {
      "id": 1,
      "bracket_kind": "backbone",
      "pairing_id": "F1/fragments[0]",
      "group_id": ">1:4",
      "ru_midpoint": [
        0.07906326414756215,
        -0.4200645529218012
      ],
      "bond_midpoint": [
        3.7317168579815228,
        -0.1316171430830524
      ],
      "orientation_vector": [
        0.0,
        1.0
      ],
      "half_bracket_size": 1.7320288086990763,
      "bond": [
        1,
        28
      ],
      "fragment": "F1",
      "backbone": true,
      "suspended_anchor_atom": null,
      "suspended_reason": null,
      "source_label": "F1/fragments[0]",
      "marker_id": "28",
      "side": "right",
      "connection_group": ">1",
      "marker_type_index": 4
    }
  ]
}
