
     RDKit          2D

  0  0  0  0  0  0  0  0  0  0999 V3000
M  V30 BEGIN CTAB
M  V30 COUNTS 7 7 1 0 0
M  V30 BEGIN ATOM
M  V30 1 H -1.760301 -0.183486 0.000000 0
M  V30 2 H 1.759902 -0.183486 0.000000 0
M  V30 3 C -0.809245 -0.492503 0.000000 0
M  V30 4 C -0.500217 -1.443592 0.000000 0
M  V30 5 C 0.499818 -1.443592 0.000000 0
M  V30 6 C 0.808846 -0.492503 0.000000 0
M  V30 7 S -0.000199 0.095303 0.000000 0
M  V30 END ATOM
M  V30 BEGIN BOND
M  V30 1 2 3 4
M  V30 2 1 4 5
M  V30 3 2 5 6
M  V30 4 1 6 7
M  V30 5 1 7 3
M  V30 6 1 1 3
M  V30 7 1 2 6
M  V30 END BOND
M  V30 BEGIN SGROUP
M  V30 1 SRU 0 ATOMS=(4 1 2 3 6) CBONDS=(2 6 7) -
M  V30 BRKXYZ=(9 -1.2848 1.2009 0 -1.2848 -1.8769 0 0 0 0) BRKXYZ=(9 1.2844 1.-
M  V30 2009 0 1.2844 -1.8769 0 0 0 0)
M  V30 END SGROUP
M  V30 END CTAB
M  END
>  <BIGSMILES_BRACKET_RECORDS_JSON>
{
  "records": [
    {
      "id": 0,
      "bracket_kind": "backbone",
      "pairing_id": "F1/fragments[0]",
      "group_id": "$a:2",
      "ru_midpoint": [
        -0.00019943418023116166,
        -0.59197989008756
      ],
      "bond_midpoint": [
        -1.2847727745531081,
        -0.3379943324676635
      ],
      "orientation_vector": [
        0.0,
        1.0
      ],
      "half_bracket_size": 1.53889519485384,
      "bond": [
        0,
        2
      ],
      "fragment": "F1",
      "backbone": true,
      "suspended_anchor_atom": null,
      "suspended_reason": null,
      "source_label": "F1/fragments[0]",
      "marker_id": "0",
      "side": "left",
      "connection_group": "$a",
      "marker_type_index": 2
    },
    {
      "id": 1,
      "bracket_kind": "backbone",
      "pairing_id": "F1/fragments[0]",
      "group_id": "$a:2",
      "ru_midpoint": [
        -0.00019943418023116166,
        -0.59197989008756
      ],
      "bond_midpoint": [
        1.2843739061926462,
        -0.33799433246766325
      ],
      "orientation_vector": [
        0.0,
        1.0
      ],
      "half_bracket_size": 1.53889519485384,
      "bond": [
        1,
        5
      ],
      "fragment": "F1",
      "backbone": true,
      "suspended_anchor_atom": null,
      "suspended_reason": null,
      "source_label": "F1/fragments[0]",
      "marker_id": "6",
      "side": "right",
      "connection_group": "$a",
      "marker_type_index": 2
    }
  ]
}
