
     RDKit          2D

  0  0  0  0  0  0  0  0  0  0999 V3000
M  V30 BEGIN CTAB
M  V30 COUNTS 12 12 1 0 0
M  V30 BEGIN ATOM
M  V30 1 H -3.000185 0.484400 0.000000 0
M  V30 2 H 2.999786 -0.515600 0.000000 0
M  V30 3 C -2.000185 -0.015600 0.000000 0
M  V30 4 C -1.000185 -0.015600 0.000000 0
M  V30 5 C -0.500192 -0.881613 0.000000 0
M  V30 6 C -1.000158 -1.747578 0.000000 0
M  V30 7 C -0.500298 -2.613605 0.000000 0
M  V30 8 C 0.499793 -0.881613 0.000000 0
M  V30 9 C 0.999786 -0.015600 0.000000 0
M  V30 10 C 0.499793 0.850413 0.000000 0
M  V30 11 C -0.500192 0.850413 0.000000 0
M  V30 12 C 1.999786 -0.015600 0.000000 0
M  V30 END ATOM
M  V30 BEGIN BOND
M  V30 1 1 3 4
M  V30 2 2 4 5
M  V30 3 1 5 6
M  V30 4 1 6 7
M  V30 5 1 5 8
M  V30 6 2 8 9
M  V30 7 1 9 10
M  V30 8 2 10 11
M  V30 9 1 9 12
M  V30 10 1 11 4
M  V30 11 1 1 3
M  V30 12 1 2 12
M  V30 END BOND
M  V30 BEGIN SGROUP
M  V30 1 SRU 0 ATOMS=(4 1 2 3 12) CBONDS=(2 11 12) -
M  V30 BRKXYZ=(9 -2.5002 1.9664 0 -2.5002 -1.4976 0 0 0 0) BRKXYZ=(9 2.4998 1.-
M  V30 4664 0 2.4998 -1.9976 0 0 0 0)
M  V30 END SGROUP
M  V30 END CTAB
M  END
>  <BIGSMILES_BRACKET_RECORDS_JSON>
{
  "records": [
    {
      "id": 0,
      "bracket_kind": "backbone",
      "pairing_id": "F1/fragments[0]",
      "group_id": "$a:2",
      "ru_midpoint": [
        -0.00019949073190406175,
        -0.0155796728694369
      ],
      "bond_midpoint": [
        -2.500185163875563,
        0.23440032713556022
      ],
      "orientation_vector": [
        0.0,
        1.0
      ],
      "half_bracket_size": 1.73202596823819,
      "bond": [
        0,
        2
      ],
      "fragment": "F1",
      "backbone": true,
      "suspended_anchor_atom": null,
      "suspended_reason": null,
      "source_label": "F1/fragments[0]",
      "marker_id": "0",
      "side": "left",
      "connection_group": "$a",
      "marker_type_index": 2
    },
    {
      "id": 1,
      "bracket_kind": "backbone",
      "pairing_id": "F1/fragments[0]",
      "group_id": "$a:2",
      "ru_midpoint": [
        -0.00019949073190406175,
        -0.0155796728694369
      ],
      "bond_midpoint": [
        2.4997861541359176,
        -0.26559967286443986
      ],
      "orientation_vector": [
        0.0,
        1.0
      ],
      "half_bracket_size": 1.73202596823819,
      "bond": [
        1,
        11
      ],
      "fragment": "F1",
      "backbone": true,
      "suspended_anchor_atom": null,
      "suspended_reason": null,
      "source_label": "F1/fragments[0]",
      "marker_id": "11",
      "side": "right",
      "connection_group": "$a",
      "marker_type_index": 2
    }
  ]
}
