
     RDKit          2D

  0  0  0  0  0  0  0  0  0  0999 V3000
M  V30 BEGIN CTAB
M  V30 COUNTS 11 12 1 0 0
M  V30 BEGIN ATOM
M  V30 1 H -1.760243 -0.183373 0.000000 0
M  V30 2 H 1.759844 -0.183389 0.000000 0
M  V30 3 C -0.809196 -0.492420 0.000000 0
M  V30 4 C -0.500196 -1.443560 0.000000 0
M  V30 5 C 0.499804 -1.443520 0.000000 0
M  V30 6 O 0.999932 -2.309500 0.000000 0
M  V30 7 C 0.499859 -3.175521 0.000000 0
M  V30 8 C -0.500141 -3.175561 0.000000 0
M  V30 9 O -1.000069 -2.309581 0.000000 0
M  V30 10 C 0.808805 -0.492460 0.000000 0
M  V30 11 S -0.000289 0.095260 0.000000 0
M  V30 END ATOM
M  V30 BEGIN BOND
M  V30 1 2 3 4
M  V30 2 1 4 5
M  V30 3 1 5 6
M  V30 4 1 6 7
M  V30 5 1 7 8
M  V30 6 1 8 9
M  V30 7 2 5 10
M  V30 8 1 10 11
M  V30 9 1 11 3
M  V30 10 1 9 4
M  V30 11 1 1 3
M  V30 12 1 2 10
M  V30 END BOND
M  V30 BEGIN SGROUP
M  V30 1 SRU 0 ATOMS=(4 1 2 3 10) CBONDS=(2 11 12) -
M  V30 BRKXYZ=(9 -1.2847 2.9329 0 -1.2847 -3.6087 0 0 0 0) BRKXYZ=(9 1.2843 2.-
M  V30 9329 0 1.2843 -3.6087 0 0 0 0)
M  V30 END SGROUP
M  V30 END CTAB
M  END
>  <BIGSMILES_BRACKET_RECORDS_JSON>
{
  "records": [
    {
      "id": 0,
      "bracket_kind": "backbone",
      "pairing_id": "F1/fragments[0]",
      "group_id": "$a:2",
      "ru_midpoint": [
        -0.00017182634579882006,
        -1.3739659024958226
      ],
      "bond_midpoint": [
        -1.2847191644943243,
        -0.3378963477819805
      ],
      "orientation_vector": [
        0.0,
        1.0
      ],
      "half_bracket_size": 3.2708211980719515,
      "bond": [
        0,
        2
      ],
      "fragment": "F1",
      "backbone": true,
      "suspended_anchor_atom": null,
      "suspended_reason": null,
      "source_label": "F1/fragments[0]",
      "marker_id": "0",
      "side": "left",
      "connection_group": "$a",
      "marker_type_index": 2
    },
    {
      "id": 1,
      "bracket_kind": "backbone",
      "pairing_id": "F1/fragments[0]",
      "group_id": "$a:2",
      "ru_midpoint": [
        -0.00017182634579882006,
        -1.3739659024958226
      ],
      "bond_midpoint": [
        1.2843242631427625,
        -0.33792447654477
      ],
      "orientation_vector": [
        0.0,
        1.0
      ],
      "half_bracket_size": 3.2708211980719515,
      "bond": [
        1,
        9
      ],
      "fragment": "F1",
      "backbone": true,
      "suspended_anchor_atom": null,
      "suspended_reason": null,
      "source_label": "F1/fragments[0]",
      "marker_id": "10",
      "side": "right",
      "connection_group": "$a",
      "marker_type_index": 2
    }
  ]
}
