
     RDKit          2D

  0  0  0  0  0  0  0  0  0  0999 V3000
M  V30 BEGIN CTAB
M  V30 COUNTS 24 25 3 0 0
M  V30 BEGIN ATOM
M  V30 1 H -3.170649 -0.448581 0.000000 0
M  V30 2 H 3.170020 0.051381 0.000000 0
M  V30 3 C -2.304433 0.051322 0.000000 0
M  V30 4 C -1.438217 -0.448581 0.000000 0
M  V30 5 C -1.438217 -1.448607 0.000000 0
M  V30 6 O -0.572055 -1.948457 0.000000 0
M  V30 7 C -0.571982 -2.948209 0.000000 0
M  V30 8 C 0.294107 -3.448332 0.000000 0
M  V30 9 C 0.294107 -4.448358 0.000000 0
M  V30 10 C -0.571882 -4.948434 0.000000 0
M  V30 11 C -1.437871 -4.448484 0.000000 0
M  V30 12 C -1.437871 -3.448458 0.000000 0
M  V30 13 O -0.572128 0.051322 0.000000 0
M  V30 14 C 0.571785 -0.448581 0.000000 0
M  V30 15 C 0.571785 -1.448606 0.000000 0
M  V30 16 O 1.437937 -1.948450 0.000000 0
M  V30 17 C 1.437937 -2.948475 0.000000 0
M  V30 18 C 2.303917 -3.448418 0.000000 0
M  V30 19 C 2.304190 -4.448516 0.000000 0
M  V30 20 C 1.438211 -4.948597 0.000000 0
M  V30 21 C 0.572132 -4.448480 0.000000 0
M  V30 22 C 0.571958 -3.448555 0.000000 0
M  V30 23 C 1.437869 0.051381 0.000000 0
M  V30 24 O 2.303945 -0.448581 0.000000 0
M  V30 END ATOM
M  V30 BEGIN BOND
M  V30 1 1 3 4
M  V30 2 1 4 5
M  V30 3 1 5 6
M  V30 4 1 6 7
M  V30 5 2 7 8
M  V30 6 1 8 9
M  V30 7 2 9 10
M  V30 8 1 10 11
M  V30 9 2 11 12
M  V30 10 1 4 13
M  V30 11 1 12 7
M  V30 12 1 14 15
M  V30 13 1 15 16
M  V30 14 1 16 17
M  V30 15 2 17 18
M  V30 16 1 18 19
M  V30 17 2 19 20
M  V30 18 1 20 21
M  V30 19 2 21 22
M  V30 20 1 14 23
M  V30 21 1 23 24
M  V30 22 1 22 17
M  V30 23 1 13 14
M  V30 24 1 1 3
M  V30 25 1 2 24
M  V30 END BOND
M  V30 BEGIN SGROUP
M  V30 1 SRU 0 ATOMS=(4 1 3 13 14) CBONDS=(2 23 24) -
M  V30 BRKXYZ=(9 -2.7375 0.3013 0 -2.7375 -0.6986 0 0 0 0) BRKXYZ=(9 -0.0002 0-
M  V30 .3013 0 -0.0002 -0.6986 0 0 0 0)
M  V30 2 SRU 0 ATOMS=(4 2 13 14 24) CBONDS=(2 23 25) -
M  V30 BRKXYZ=(9 -0.0002 0.3013 0 -0.0002 -0.6986 0 0 0 0) BRKXYZ=(9 2.7370 0.-
M  V30 3014 0 2.7370 -0.6986 0 0 0 0)
M  V30 3 SRU 0 ATOMS=(4 1 2 3 24) CBONDS=(2 24 25) -
M  V30 BRKXYZ=(9 -2.7375 4.8013 0 -2.7375 -5.1986 0 0 0 0) BRKXYZ=(9 2.7370 4.-
M  V30 8014 0 2.7370 -5.1986 0 0 0 0)
M  V30 END SGROUP
M  V30 END CTAB
M  END
>  <BIGSMILES_BRACKET_RECORDS_JSON>
{
  "records": [
    {
      "id": 0,
      "bracket_kind": "backbone",
      "pairing_id": "F1/fragments[0]",
      "group_id": "<1:3",
      "ru_midpoint": [
        -1.8713796446341318,
        -0.19861073141086483
      ],
      "bond_midpoint": [
        -2.737540960777629,
        -0.1986293999025012
      ],
      "orientation_vector": [
        0.0,
        1.0
      ],
      "half_bracket_size": 0.4999623982515988,
      "bond": [
        0,
        2
      ],
      "fragment": "F1",
      "backbone": true,
      "suspended_anchor_atom": null,
      "suspended_reason": null,
      "source_label": "F1/fragments[0]",
      "marker_id": "0",
      "side": "left",
      "connection_group": "<1",
      "marker_type_index": 3
    },
    {
      "id": 1,
      "bracket_kind": "backbone",
      "pairing_id": "F1/fragments[0]",
      "group_id": ">1:4",
      "ru_midpoint": [
        -1.8713796446341318,
        -0.19861073141086483
      ],
      "bond_midpoint": [
        -0.0001714720027098937,
        -0.19862939990250117
      ],
      "orientation_vector": [
        0.0,
        1.0
      ],
      "half_bracket_size": 0.4999623982515988,
      "bond": [
        12,
        13
      ],
      "fragment": "F1",
      "backbone": true,
      "suspended_anchor_atom": null,
      "suspended_reason": null,
      "source_label": "F1/fragments[0]",
      "marker_id": "12",
      "side": "right",
      "connection_group": ">1",
      "marker_type_index": 4
    },
    {
      "id": 2,
      "bracket_kind": "backbone",
      "pairing_id": "F1/fragments[1]",
      "group_id": "<1:3",
      "ru_midpoint": [
        1.8709165435473138,
        -0.1985920009855785
      ],
      "bond_midpoint": [
        -0.0001714720027098937,
        -0.19862939990250117
      ],
      "orientation_vector": [
        0.0,
        1.0
      ],
      "half_bracket_size": 0.4999623982515988,
      "bond": [
        12,
        13
      ],
      "fragment": "F1",
      "backbone": true,
      "suspended_anchor_atom": null,
      "suspended_reason": null,
      "source_label": "F1/fragments[1]",
      "marker_id": "0",
      "side": "left",
      "connection_group": "<1",
      "marker_type_index": 3
    },
    {
      "id": 3,
      "bracket_kind": "backbone",
      "pairing_id": "F1/fragments[1]",
      "group_id": ">1:4",
      "ru_midpoint": [
        1.8709165435473138,
        -0.1985920009855785
      ],
      "bond_midpoint": [
        2.73698251016122,
        -0.1986
      ],
      "orientation_vector": [
        0.0,
        1.0
      ],
      "half_bracket_size": 0.4999623982515988,
      "bond": [
        1,
        23
      ],
      "fragment": "F1",
      "backbone": true,
      "suspended_anchor_atom": null,
      "suspended_reason": null,
      "source_label": "F1/fragments[1]",
      "marker_id": "12",
      "side": "right",
      "connection_group": ">1",
      "marker_type_index": 4
    },
    {
      "id": 4,
      "bracket_kind": "backbone",
      "pairing_id": "F1/connected",
      "group_id": "$overall",
      "ru_midpoint": [
        -0.0002659337785330118,
        -0.19858803244519274
      ],
      "bond_midpoint": [
        -2.737540960777629,
        -0.1986293999025012
      ],
      "orientation_vector": [
        0.0,
        1.0
      ],
      "half_bracket_size": 4.999978429224505,
      "bond": [
        0,
        2
      ],
      "fragment": "F1",
      "backbone": true,
      "suspended_anchor_atom": null,
      "suspended_reason": null,
      "source_label": "F1/connected",
      "marker_id": "connected-overall-left",
      "side": "left",
      "connection_group": "$overall",
      "marker_type_index": null
    },
    {
      "id": 5,
      "bracket_kind": "backbone",
      "pairing_id": "F1/connected",
      "group_id": "$overall",
      "ru_midpoint": [
        -0.0002659337785330118,
        -0.19858803244519274
      ],
      "bond_midpoint": [
        2.73698251016122,
        -0.1986
      ],
      "orientation_vector": [
        0.0,
        1.0
      ],
      "half_bracket_size": 4.999978429224505,
      "bond": [
        1,
        23
      ],
      "fragment": "F1",
      "backbone": true,
      "suspended_anchor_atom": null,
      "suspended_reason": null,
      "source_label": "F1/connected",
      "marker_id": "connected-overall-right",
      "side": "right",
      "connection_group": "$overall",
      "marker_type_index": null
    }
  ]
}
