
     RDKit          2D

  0  0  0  0  0  0  0  0  0  0999 V3000
M  V30 BEGIN CTAB
M  V30 COUNTS 14 13 1 0 0
M  V30 BEGIN ATOM
M  V30 1 H -1.299486 -0.448561 0.000000 0
M  V30 2 H 1.298815 0.051361 0.000000 0
M  V30 3 C -0.433386 0.051361 0.000000 0
M  V30 4 C 0.432714 -0.448561 0.000000 0
M  V30 5 C 0.432714 -2.218880 0.000000 0
M  V30 6 F 0.932600 -3.084885 0.000000 0
M  V30 7 F 1.432721 -2.218880 0.000000 0
M  V30 8 C -0.433291 -2.718766 0.000000 0
M  V30 9 F 0.066595 -3.584771 0.000000 0
M  V30 10 F -0.933412 -3.584771 0.000000 0
M  V30 11 C -1.299297 -2.218845 0.000000 0
M  V30 12 F -1.799418 -3.084850 0.000000 0
M  V30 13 F -2.299303 -2.218845 0.000000 0
M  V30 14 F -1.299297 -1.218838 0.000000 0
M  V30 END ATOM
M  V30 BEGIN BOND
M  V30 1 1 3 4
M  V30 2 1 4 5
M  V30 3 1 5 6
M  V30 4 1 5 7
M  V30 5 1 5 8
M  V30 6 1 8 9
M  V30 7 1 8 10
M  V30 8 1 8 11
M  V30 9 1 11 12
M  V30 10 1 11 13
M  V30 11 1 11 14
M  V30 12 1 1 3
M  V30 13 1 2 4
M  V30 END BOND
M  V30 BEGIN SGROUP
M  V30 1 SRU 0 ATOMS=(4 1 2 3 4) CBONDS=(2 12 13) -
M  V30 BRKXYZ=(9 -0.8664 0.3013 0 -0.8664 -0.6985 0 0 0 0) BRKXYZ=(9 0.8658 0.-
M  V30 3013 0 0.8658 -0.6985 0 0 0 0)
M  V30 END SGROUP
M  V30 END CTAB
M  END
>  <BIGSMILES_BRACKET_RECORDS_JSON>
{
  "records": [
    {
      "id": 0,
      "bracket_kind": "backbone",
      "pairing_id": "F1/fragments[0]",
      "group_id": "$a:2",
      "ru_midpoint": [
        -0.0003018090771240711,
        -0.1985408908586299
      ],
      "bond_midpoint": [
        -0.8664362762741087,
        -0.1985999999999999
      ],
      "orientation_vector": [
        0.0,
        1.0
      ],
      "half_bracket_size": 0.4999220778749187,
      "bond": [
        0,
        2
      ],
      "fragment": "F1",
      "backbone": true,
      "suspended_anchor_atom": null,
      "suspended_reason": null,
      "source_label": "F1/fragments[0]",
      "marker_id": "0",
      "side": "left",
      "connection_group": "$a",
      "marker_type_index": 2
    },
    {
      "id": 1,
      "bracket_kind": "backbone",
      "pairing_id": "F1/fragments[0]",
      "group_id": "$a:2",
      "ru_midpoint": [
        -0.0003018090771240711,
        -0.1985408908586299
      ],
      "bond_midpoint": [
        0.8657644003834468,
        -0.1985999999999999
      ],
      "orientation_vector": [
        0.0,
        1.0
      ],
      "half_bracket_size": 0.4999220778749187,
      "bond": [
        1,
        3
      ],
      "fragment": "F1",
      "backbone": true,
      "suspended_anchor_atom": null,
      "suspended_reason": null,
      "source_label": "F1/fragments[0]",
      "marker_id": "13",
      "side": "right",
      "connection_group": "$a",
      "marker_type_index": 2
    }
  ]
}
