
     RDKit          2D

  0  0  0  0  0  0  0  0  0  0999 V3000
M  V30 BEGIN CTAB
M  V30 COUNTS 10 9 1 0 0
M  V30 BEGIN ATOM
M  V30 1 H -3.464481 -0.448600 0.000000 0
M  V30 2 H 3.463983 -0.448600 0.000000 0
M  V30 3 C -2.598427 0.051400 0.000000 0
M  V30 4 C -1.732373 -0.448600 0.000000 0
M  V30 5 C -0.866311 0.051400 0.000000 0
M  V30 6 C -0.000257 -0.448600 0.000000 0
M  V30 7 C 0.865805 0.051400 0.000000 0
M  V30 8 C 1.731859 -0.448600 0.000000 0
M  V30 9 O 1.731857 -1.448600 0.000000 0
M  V30 10 O 2.597921 0.051400 0.000000 0
M  V30 END ATOM
M  V30 BEGIN BOND
M  V30 1 1 3 4
M  V30 2 1 4 5
M  V30 3 1 5 6
M  V30 4 1 6 7
M  V30 5 1 7 8
M  V30 6 2 8 9
M  V30 7 1 8 10
M  V30 8 1 1 3
M  V30 9 1 2 10
M  V30 END BOND
M  V30 BEGIN SGROUP
M  V30 1 SRU 0 ATOMS=(4 1 2 3 10) CBONDS=(2 8 9) -
M  V30 BRKXYZ=(9 -3.0315 0.3014 0 -3.0315 -0.6986 0 0 0 0) BRKXYZ=(9 3.0310 0.-
M  V30 3014 0 3.0310 -0.6986 0 0 0 0)
M  V30 END SGROUP
M  V30 END CTAB
M  END
>  <BIGSMILES_BRACKET_RECORDS_JSON>
{
  "records": [
    {
      "id": 0,
      "bracket_kind": "backbone",
      "pairing_id": "F1/fragments[0]",
      "group_id": "<1:3",
      "ru_midpoint": [
        -0.00025167798933203867,
        -0.22636691453438193
      ],
      "bond_midpoint": [
        -3.0314539829240514,
        -0.1986
      ],
      "orientation_vector": [
        0.0,
        1.0
      ],
      "half_bracket_size": 0.5000001571291955,
      "bond": [
        0,
        2
      ],
      "fragment": "F1",
      "backbone": true,
      "suspended_anchor_atom": null,
      "suspended_reason": null,
      "source_label": "F1/fragments[0]",
      "marker_id": "0",
      "side": "left",
      "connection_group": "<1",
      "marker_type_index": 3
    },
    {
      "id": 1,
      "bracket_kind": "backbone",
      "pairing_id": "F1/fragments[0]",
      "group_id": ">1:4",
      "ru_midpoint": [
        -0.00025167798933203867,
        -0.22636691453438193
      ],
      "bond_midpoint": [
        3.0309521928273124,
        -0.19859999999999994
      ],
      "orientation_vector": [
        0.0,
        1.0
      ],
      "half_bracket_size": 0.5000001571291955,
      "bond": [
        1,
        9
      ],
      "fragment": "F1",
      "backbone": true,
      "suspended_anchor_atom": null,
      "suspended_reason": null,
      "source_label": "F1/fragments[0]",
      "marker_id": "9",
      "side": "right",
      "connection_group": ">1",
      "marker_type_index": 4
    }
  ]
}
