
     RDKit          2D

  0  0  0  0  0  0  0  0  0  0999 V3000
M  V30 BEGIN CTAB
M  V30 COUNTS 9 9 1 0 0
M  V30 BEGIN ATOM
M  V30 1 H -2.567181 0.118387 0.000000 0
M  V30 2 H 2.432761 -0.381613 0.000000 0
M  V30 3 O -1.567181 -0.381613 0.000000 0
M  V30 4 C -0.567181 -0.381613 0.000000 0
M  V30 5 C -0.067195 0.484387 0.000000 0
M  V30 6 C 0.932775 0.484387 0.000000 0
M  V30 7 C 1.432761 -0.381613 0.000000 0
M  V30 8 C 0.932775 -1.247614 0.000000 0
M  V30 9 C -0.067195 -1.247614 0.000000 0
M  V30 END ATOM
M  V30 BEGIN BOND
M  V30 1 1 3 4
M  V30 2 2 4 5
M  V30 3 1 5 6
M  V30 4 2 6 7
M  V30 5 1 7 8
M  V30 6 2 8 9
M  V30 7 1 9 4
M  V30 8 1 1 3
M  V30 9 1 2 7
M  V30 END BOND
M  V30 BEGIN SGROUP
M  V30 1 SRU 0 ATOMS=(4 1 2 3 7) CBONDS=(2 8 9) -
M  V30 BRKXYZ=(9 -2.0672 1.6004 0 -2.0672 -1.8636 0 0 0 0) BRKXYZ=(9 1.9328 1.-
M  V30 3504 0 1.9328 -2.1136 0 0 0 0)
M  V30 END SGROUP
M  V30 END CTAB
M  END
>  <BIGSMILES_BRACKET_RECORDS_JSON>
{
  "records": [
    {
      "id": 0,
      "bracket_kind": "backbone",
      "pairing_id": "F1/fragments[0]",
      "group_id": "<1:3",
      "ru_midpoint": [
        0.047363812618513856,
        -0.4371660426282191
      ],
      "bond_midpoint": [
        -2.067180753257161,
        -0.13161348048664137
      ],
      "orientation_vector": [
        0.0,
        1.0
      ],
      "half_bracket_size": 1.7320000404949596,
      "bond": [
        0,
        2
      ],
      "fragment": "F1",
      "backbone": true,
      "suspended_anchor_atom": null,
      "suspended_reason": null,
      "source_label": "F1/fragments[0]",
      "marker_id": "0",
      "side": "left",
      "connection_group": "<1",
      "marker_type_index": 3
    },
    {
      "id": 1,
      "bracket_kind": "backbone",
      "pairing_id": "F1/fragments[0]",
      "group_id": ">1:4",
      "ru_midpoint": [
        0.047363812618513856,
        -0.4371660426282191
      ],
      "bond_midpoint": [
        1.9327606259752543,
        -0.38161348048664134
      ],
      "orientation_vector": [
        0.0,
        1.0
      ],
      "half_bracket_size": 1.7320000404949596,
      "bond": [
        1,
        6
      ],
      "fragment": "F1",
      "backbone": true,
      "suspended_anchor_atom": null,
      "suspended_reason": null,
      "source_label": "F1/fragments[0]",
      "marker_id": "8",
      "side": "right",
      "connection_group": ">1",
      "marker_type_index": 4
    }
  ]
}
