
     RDKit          2D

  0  0  0  0  0  0  0  0  0  0999 V3000
M  V30 BEGIN CTAB
M  V30 COUNTS 20 20 1 0 0
M  V30 BEGIN ATOM
M  V30 1 H -6.062317 0.051526 0.000000 0
M  V30 2 H 6.061820 0.051190 0.000000 0
M  V30 3 N -5.196321 -0.448574 0.000000 0
M  V30 4 C -4.330325 0.051526 0.000000 0
M  V30 5 C -3.464348 -0.448558 0.000000 0
M  V30 6 C -3.464446 -1.448577 0.000000 0
M  V30 7 C -2.598452 -1.948671 0.000000 0
M  V30 8 C -1.732362 -1.448745 0.000000 0
M  V30 9 C -1.732265 -0.448726 0.000000 0
M  V30 10 C -2.598258 0.051367 0.000000 0
M  V30 11 C -0.866191 0.051190 0.000000 0
M  V30 12 N -0.000186 -0.448711 0.000000 0
M  V30 13 C 0.865810 0.051190 0.000000 0
M  V30 14 O 0.865808 1.051190 0.000000 0
M  V30 15 C 1.731814 -0.448711 0.000000 0
M  V30 16 C 2.597810 0.051190 0.000000 0
M  V30 17 C 3.463815 -0.448711 0.000000 0
M  V30 18 C 4.329811 0.051190 0.000000 0
M  V30 19 C 5.195815 -0.448711 0.000000 0
M  V30 20 O 5.195789 -1.448711 0.000000 0
M  V30 END ATOM
M  V30 BEGIN BOND
M  V30 1 1 3 4
M  V30 2 1 4 5
M  V30 3 2 5 6
M  V30 4 1 6 7
M  V30 5 2 7 8
M  V30 6 1 8 9
M  V30 7 2 9 10
M  V30 8 1 9 11
M  V30 9 1 11 12
M  V30 10 1 12 13
M  V30 11 2 13 14
M  V30 12 1 13 15
M  V30 13 1 15 16
M  V30 14 1 16 17
M  V30 15 1 17 18
M  V30 16 1 18 19
M  V30 17 2 19 20
M  V30 18 1 10 5
M  V30 19 1 1 3
M  V30 20 1 2 19
M  V30 END BOND
M  V30 BEGIN SGROUP
M  V30 1 SRU 0 ATOMS=(4 1 2 3 19) CBONDS=(2 19 20) -
M  V30 BRKXYZ=(9 -5.6293 1.8017 0 -5.6293 -2.1987 0 0 0 0) BRKXYZ=(9 5.6288 1.-
M  V30 8014 0 5.6288 -2.1990 0 0 0 0)
M  V30 END SGROUP
M  V30 END CTAB
M  END
>  <BIGSMILES_BRACKET_RECORDS_JSON>
{
  "records": [
    {
      "id": 0,
      "bracket_kind": "backbone",
      "pairing_id": "F1/fragments[0]",
      "group_id": "<1:3",
      "ru_midpoint": [
        -0.4333123622643331,
        -0.42089278716598133
      ],
      "bond_midpoint": [
        -5.629319249361803,
        -0.19852383974619203
      ],
      "orientation_vector": [
        0.0,
        1.0
      ],
      "half_bracket_size": 2.0001967992955825,
      "bond": [
        0,
        2
      ],
      "fragment": "F1",
      "backbone": true,
      "suspended_anchor_atom": null,
      "suspended_reason": null,
      "source_label": "F1/fragments[0]",
      "marker_id": "0",
      "side": "left",
      "connection_group": "<1",
      "marker_type_index": 3
    },
    {
      "id": 1,
      "bracket_kind": "backbone",
      "pairing_id": "F1/fragments[0]",
      "group_id": ">1:4",
      "ru_midpoint": [
        -0.4333123622643331,
        -0.42089278716598133
      ],
      "bond_midpoint": [
        5.628817547521734,
        -0.1987604824714434
      ],
      "orientation_vector": [
        0.0,
        1.0
      ],
      "half_bracket_size": 2.0001967992955825,
      "bond": [
        1,
        18
      ],
      "fragment": "F1",
      "backbone": true,
      "suspended_anchor_atom": null,
      "suspended_reason": null,
      "source_label": "F1/fragments[0]",
      "marker_id": "19",
      "side": "right",
      "connection_group": ">1",
      "marker_type_index": 4
    }
  ]
}
