
     RDKit          2D

  0  0  0  0  0  0  0  0  0  0999 V3000
M  V30 BEGIN CTAB
M  V30 COUNTS 19 20 1 0 0
M  V30 BEGIN ATOM
M  V30 1 H -5.433155 0.118389 0.000000 0
M  V30 2 H 5.298812 -0.381611 0.000000 0
M  V30 3 O -4.433155 -0.381611 0.000000 0
M  V30 4 C -3.433155 -0.381611 0.000000 0
M  V30 5 C -2.933150 0.484423 0.000000 0
M  V30 6 C -1.933140 0.484423 0.000000 0
M  V30 7 C -1.433135 -0.381611 0.000000 0
M  V30 8 C -1.933140 -1.247645 0.000000 0
M  V30 9 C -2.933150 -1.247645 0.000000 0
M  V30 10 S -0.433135 -0.381611 0.000000 0
M  V30 11 C 0.566865 -0.381611 0.000000 0
M  V30 12 C 1.066849 0.484388 0.000000 0
M  V30 13 C 2.066818 0.484388 0.000000 0
M  V30 14 C 2.566803 -0.381611 0.000000 0
M  V30 15 C 2.066818 -1.247609 0.000000 0
M  V30 16 C 1.066849 -1.247609 0.000000 0
M  V30 17 O 3.566803 -0.381611 0.000000 0
M  V30 18 C 4.432807 0.118489 0.000000 0
M  V30 19 O 4.432809 1.118490 0.000000 0
M  V30 END ATOM
M  V30 BEGIN BOND
M  V30 1 1 3 4
M  V30 2 2 4 5
M  V30 3 1 5 6
M  V30 4 2 6 7
M  V30 5 1 7 8
M  V30 6 2 8 9
M  V30 7 1 7 10
M  V30 8 1 10 11
M  V30 9 2 11 12
M  V30 10 1 12 13
M  V30 11 2 13 14
M  V30 12 1 14 15
M  V30 13 2 15 16
M  V30 14 1 14 17
M  V30 15 1 17 18
M  V30 16 2 18 19
M  V30 17 1 9 4
M  V30 18 1 16 11
M  V30 19 1 1 3
M  V30 20 1 2 18
M  V30 END BOND
M  V30 BEGIN SGROUP
M  V30 1 SRU 0 ATOMS=(4 1 2 3 18) CBONDS=(2 19 20) -
M  V30 BRKXYZ=(9 -4.9332 1.6005 0 -4.9332 -1.8637 0 0 0 0) BRKXYZ=(9 4.8658 1.-
M  V30 6005 0 4.8658 -1.8636 0 0 0 0)
M  V30 END SGROUP
M  V30 END CTAB
M  END
>  <BIGSMILES_BRACKET_RECORDS_JSON>
{
  "records": [
    {
      "id": 0,
      "bracket_kind": "backbone",
      "pairing_id": "F1/fragments[0]",
      "group_id": "<1:3",
      "ru_midpoint": [
        -0.18169177558975846,
        -0.38161218140289316
      ],
      "bond_midpoint": [
        -4.933155374291536,
        -0.13161089484611302
      ],
      "orientation_vector": [
        0.0,
        1.0
      ],
      "half_bracket_size": 1.732068239080402,
      "bond": [
        0,
        2
      ],
      "fragment": "F1",
      "backbone": true,
      "suspended_anchor_atom": null,
      "suspended_reason": null,
      "source_label": "F1/fragments[0]",
      "marker_id": "0",
      "side": "left",
      "connection_group": "<1",
      "marker_type_index": 3
    },
    {
      "id": 1,
      "bracket_kind": "backbone",
      "pairing_id": "F1/fragments[0]",
      "group_id": ">1:4",
      "ru_midpoint": [
        -0.18169177558975846,
        -0.38161218140289316
      ],
      "bond_midpoint": [
        4.865809480994567,
        -0.1315608148711016
      ],
      "orientation_vector": [
        0.0,
        1.0
      ],
      "half_bracket_size": 1.732068239080402,
      "bond": [
        1,
        17
      ],
      "fragment": "F1",
      "backbone": true,
      "suspended_anchor_atom": null,
      "suspended_reason": null,
      "source_label": "F1/fragments[0]",
      "marker_id": "18",
      "side": "right",
      "connection_group": ">1",
      "marker_type_index": 4
    }
  ]
}
