
     RDKit          2D

  0  0  0  0  0  0  0  0  0  0999 V3000
M  V30 BEGIN CTAB
M  V30 COUNTS 20 21 1 0 0
M  V30 BEGIN ATOM
M  V30 1 H -5.360462 -0.461470 0.000000 0
M  V30 2 H 5.454828 -0.545153 0.000000 0
M  V30 3 O -4.494466 -0.961370 0.000000 0
M  V30 4 C -3.628469 -0.461470 0.000000 0
M  V30 5 C -2.762465 -0.961370 0.000000 0
M  V30 6 O -1.896469 -0.461470 0.000000 0
M  V30 7 C -1.030464 -0.961370 0.000000 0
M  V30 8 O -1.151373 -1.954034 0.000000 0
M  V30 9 C -0.069717 -0.683946 0.000000 0
M  V30 10 C 0.170530 0.286972 0.000000 0
M  V30 11 C 1.131445 0.564170 0.000000 0
M  V30 12 C 1.852015 -0.129114 0.000000 0
M  V30 13 C 1.611768 -1.100032 0.000000 0
M  V30 14 C 0.651047 -1.377278 0.000000 0
M  V30 15 C 2.332338 -1.793317 0.000000 0
M  V30 16 C 3.293058 -1.516071 0.000000 0
M  V30 17 C 3.533305 -0.545153 0.000000 0
M  V30 18 C 2.812736 0.148131 0.000000 0
M  V30 19 C 4.494067 -0.267777 0.000000 0
M  V30 20 O 4.615000 0.724884 0.000000 0
M  V30 END ATOM
M  V30 BEGIN BOND
M  V30 1 1 3 4
M  V30 2 1 4 5
M  V30 3 1 5 6
M  V30 4 1 6 7
M  V30 5 2 7 8
M  V30 6 1 7 9
M  V30 7 2 9 10
M  V30 8 1 10 11
M  V30 9 2 11 12
M  V30 10 1 12 13
M  V30 11 2 13 14
M  V30 12 1 13 15
M  V30 13 2 15 16
M  V30 14 1 16 17
M  V30 15 2 17 18
M  V30 16 1 17 19
M  V30 17 2 19 20
M  V30 18 1 14 9
M  V30 19 1 18 12
M  V30 20 1 1 3
M  V30 21 1 2 19
M  V30 END BOND
M  V30 BEGIN SGROUP
M  V30 1 SRU 0 ATOMS=(4 1 2 3 19) CBONDS=(2 20 21) -
M  V30 BRKXYZ=(9 -4.9275 1.6461 0 -4.9275 -3.0689 0 0 0 0) BRKXYZ=(9 4.9744 1.-
M  V30 9510 0 4.9744 -2.7640 0 0 0 0)
M  V30 END SGROUP
M  V30 END CTAB
M  END
>  <BIGSMILES_BRACKET_RECORDS_JSON>
{
  "records": [
    {
      "id": 0,
      "bracket_kind": "backbone",
      "pairing_id": "F1/fragments[0]",
      "group_id": "<1:3",
      "ru_midpoint": [
        0.49183822096552915,
        -0.5247945349257799
      ],
      "bond_midpoint": [
        -4.92746364068665,
        -0.711419938737236
      ],
      "orientation_vector": [
        0.0,
        1.0
      ],
      "half_bracket_size": 2.357486632224181,
      "bond": [
        0,
        2
      ],
      "fragment": "F1",
      "backbone": true,
      "suspended_anchor_atom": null,
      "suspended_reason": null,
      "source_label": "F1/fragments[0]",
      "marker_id": "0",
      "side": "left",
      "connection_group": "<1",
      "marker_type_index": 3
    },
    {
      "id": 1,
      "bracket_kind": "backbone",
      "pairing_id": "F1/fragments[0]",
      "group_id": ">1:4",
      "ru_midpoint": [
        0.49183822096552915,
        -0.5247945349257799
      ],
      "bond_midpoint": [
        4.9744473841923025,
        -0.4064648107510119
      ],
      "orientation_vector": [
        0.0,
        1.0
      ],
      "half_bracket_size": 2.357486632224181,
      "bond": [
        1,
        18
      ],
      "fragment": "F1",
      "backbone": true,
      "suspended_anchor_atom": null,
      "suspended_reason": null,
      "source_label": "F1/fragments[0]",
      "marker_id": "19",
      "side": "right",
      "connection_group": ">1",
      "marker_type_index": 4
    }
  ]
}
