
     RDKit          2D

  0  0  0  0  0  0  0  0  0  0999 V3000
M  V30 BEGIN CTAB
M  V30 COUNTS 38 39 4 0 0
M  V30 BEGIN ATOM
M  V30 1 H -6.136017 -0.497649 0.000000 0
M  V30 2 O 3.537620 -0.497512 0.000000 0
M  V30 3 C 4.403731 0.002388 0.000000 0
M  V30 4 C 5.269851 -0.497512 0.000000 0
M  V30 5 N -5.270004 0.002373 0.000000 0
M  V30 6 C -4.404092 -0.497650 0.000000 0
M  V30 7 C -4.404092 -1.497652 0.000000 0
M  V30 8 C -5.270094 -1.997721 0.000000 0
M  V30 9 C -6.136095 -1.497588 0.000000 0
M  V30 10 C -7.002097 -1.997657 0.000000 0
M  V30 11 C -7.002097 -2.997659 0.000000 0
M  V30 12 O -7.868098 -3.497528 0.000000 0
M  V30 13 C -6.136095 -3.497792 0.000000 0
M  V30 14 C -5.270093 -2.997523 0.000000 0
M  V30 15 C -3.538142 0.002373 0.000000 0
M  V30 16 O -3.538158 1.002387 0.000000 0
M  V30 17 N -2.672130 -0.497650 0.000000 0
M  V30 18 C -1.806125 0.002450 0.000000 0
M  V30 19 C -1.806125 1.002450 0.000000 0
M  V30 20 C -0.940125 1.502343 0.000000 0
M  V30 21 C -0.940125 2.502344 0.000000 0
M  V30 22 C -0.074124 3.002437 0.000000 0
M  V30 23 N -0.074124 4.002437 0.000000 0
M  V30 24 C -0.940129 -0.497650 0.000000 0
M  V30 25 O -0.940122 -1.497582 0.000000 0
M  V30 26 N 0.939413 0.002450 0.000000 0
M  V30 27 C 1.805497 -0.497512 0.000000 0
M  V30 28 C 1.805497 -1.497513 0.000000 0
M  V30 29 C 0.939497 -1.997420 0.000000 0
M  V30 30 C 0.939497 -2.997420 0.000000 0
M  V30 31 C 0.073496 -3.497328 0.000000 0
M  V30 32 O 0.073496 -4.497528 0.000000 0
M  V30 33 C -0.792704 -2.997435 0.000000 0
M  V30 34 O -1.658504 -3.497542 0.000000 0
M  V30 35 C -0.792704 -1.997434 0.000000 0
M  V30 36 C 0.073496 -1.497527 0.000000 0
M  V30 37 C 2.671572 0.002450 0.000000 0
M  V30 38 O 2.671579 1.002482 0.000000 0
M  V30 END ATOM
M  V30 BEGIN BOND
M  V30 1 1 2 3
M  V30 2 1 3 4
M  V30 3 1 5 6
M  V30 4 1 6 7
M  V30 5 1 7 8
M  V30 6 2 8 9
M  V30 7 1 9 10
M  V30 8 2 10 11
M  V30 9 1 11 12
M  V30 10 1 11 13
M  V30 11 2 13 14
M  V30 12 1 6 15
M  V30 13 2 15 16
M  V30 14 1 14 8
M  V30 15 1 17 18
M  V30 16 1 18 19
M  V30 17 1 19 20
M  V30 18 1 20 21
M  V30 19 1 21 22
M  V30 20 1 22 23
M  V30 21 1 18 24
M  V30 22 2 24 25
M  V30 23 1 15 17
M  V30 24 1 26 27
M  V30 25 1 27 28
M  V30 26 1 28 29
M  V30 27 2 29 30
M  V30 28 1 30 31
M  V30 29 1 31 32
M  V30 30 2 31 33
M  V30 31 1 33 34
M  V30 32 1 33 35
M  V30 33 2 35 36
M  V30 34 1 27 37
M  V30 35 2 37 38
M  V30 36 1 36 29
M  V30 37 1 24 26
M  V30 38 1 1 5
M  V30 39 1 2 37
M  V30 END BOND
M  V30 BEGIN SGROUP
M  V30 1 SRU 0 ATOMS=(4 1 5 15 17) CBONDS=(2 23 38) -
M  V30 BRKXYZ=(9 -5.7030 0.2525 0 -5.7030 -0.7477 0 0 0 0) BRKXYZ=(9 -3.1051 0-
M  V30 .2525 0 -3.1051 -0.7477 0 0 0 0)
M  V30 2 SRU 0 ATOMS=(4 15 17 24 26) CBONDS=(2 23 37) -
M  V30 BRKXYZ=(9 -3.1051 -0.7477 0 -3.1051 0.2525 0 0 0 0) BRKXYZ=(9 -0.0004 --
M  V30 0.7477 0 -0.0004 0.2525 0 0 0 0)
M  V30 3 SRU 0 ATOMS=(4 2 24 26 37) CBONDS=(2 37 39) -
M  V30 BRKXYZ=(9 -0.0004 0.2525 0 -0.0004 -0.7477 0 0 0 0) BRKXYZ=(9 3.1046 0.-
M  V30 2526 0 3.1046 -0.7476 0 0 0 0)
M  V30 4 SRU 0 ATOMS=(4 1 2 5 37) CBONDS=(2 38 39) -
M  V30 BRKXYZ=(9 -5.7030 7.2526 0 -5.7030 -7.7479 0 0 0 0) BRKXYZ=(9 3.1046 7.-
M  V30 2527 0 3.1046 -7.7478 0 0 0 0)
M  V30 END SGROUP
M  V30 END CTAB
M  END
>  <BIGSMILES_BRACKET_RECORDS_JSON>
{
  "records": [
    {
      "id": 0,
      "bracket_kind": "backbone",
      "pairing_id": "F1/fragments[0]",
      "group_id": "<1:3",
      "ru_midpoint": [
        -4.837064137734018,
        -0.24763863653423024
      ],
      "bond_midpoint": [
        -5.703010701340522,
        -0.24763813651284344
      ],
      "orientation_vector": [
        0.0,
        1.0
      ],
      "half_bracket_size": 0.5001001599500252,
      "bond": [
        0,
        4
      ],
      "fragment": "F1",
      "backbone": true,
      "suspended_anchor_atom": null,
      "suspended_reason": null,
      "source_label": "F1/fragments[0]",
      "marker_id": "0",
      "side": "left",
      "connection_group": "<1",
      "marker_type_index": 3
    },
    {
      "id": 1,
      "bracket_kind": "backbone",
      "pairing_id": "F1/fragments[0]",
      "group_id": ">1:4",
      "ru_midpoint": [
        -4.837064137734018,
        -0.24763863653423024
      ],
      "bond_midpoint": [
        -3.1051356277063227,
        -0.24763863653423024
      ],
      "orientation_vector": [
        0.0,
        1.0
      ],
      "half_bracket_size": 0.5001001599500252,
      "bond": [
        14,
        16
      ],
      "fragment": "F1",
      "backbone": true,
      "suspended_anchor_atom": null,
      "suspended_reason": null,
      "source_label": "F1/fragments[0]",
      "marker_id": "13",
      "side": "right",
      "connection_group": ">1",
      "marker_type_index": 4
    },
    {
      "id": 2,
      "bracket_kind": "backbone",
      "pairing_id": "F1/fragments[1]",
      "group_id": "<1:3",
      "ru_midpoint": [
        -1.806127837354818,
        -0.33095002665833717
      ],
      "bond_midpoint": [
        -3.1051356277063227,
        -0.24763863653423024
      ],
      "orientation_vector": [
        0.0,
        -1.0
      ],
      "half_bracket_size": 0.5001001599500252,
      "bond": [
        14,
        16
      ],
      "fragment": "F1",
      "backbone": true,
      "suspended_anchor_atom": null,
      "suspended_reason": null,
      "source_label": "F1/fragments[1]",
      "marker_id": "0",
      "side": "left",
      "connection_group": "<1",
      "marker_type_index": 3
    },
    {
      "id": 3,
      "bracket_kind": "backbone",
      "pairing_id": "F1/fragments[1]",
      "group_id": ">1:4",
      "ru_midpoint": [
        -1.806127837354818,
        -0.33095002665833717
      ],
      "bond_midpoint": [
        -0.00035807335098558823,
        -0.24759999999999993
      ],
      "orientation_vector": [
        0.0,
        -1.0
      ],
      "half_bracket_size": 0.5001001599500252,
      "bond": [
        23,
        25
      ],
      "fragment": "F1",
      "backbone": true,
      "suspended_anchor_atom": null,
      "suspended_reason": null,
      "source_label": "F1/fragments[1]",
      "marker_id": "10",
      "side": "right",
      "connection_group": ">1",
      "marker_type_index": 4
    },
    {
      "id": 4,
      "bracket_kind": "backbone",
      "pairing_id": "F1/fragments[2]",
      "group_id": "<1:3",
      "ru_midpoint": [
        2.238525529248585,
        -0.24753111915078674
      ],
      "bond_midpoint": [
        -0.00035807335098558823,
        -0.24759999999999993
      ],
      "orientation_vector": [
        0.0,
        1.0
      ],
      "half_bracket_size": 0.5001001599500252,
      "bond": [
        23,
        25
      ],
      "fragment": "F1",
      "backbone": true,
      "suspended_anchor_atom": null,
      "suspended_reason": null,
      "source_label": "F1/fragments[2]",
      "marker_id": "0",
      "side": "left",
      "connection_group": "<1",
      "marker_type_index": 3
    },
    {
      "id": 5,
      "bracket_kind": "backbone",
      "pairing_id": "F1/fragments[2]",
      "group_id": ">1:4",
      "ru_midpoint": [
        2.238525529248585,
        -0.24753111915078674
      ],
      "bond_midpoint": [
        3.1045960691728114,
        -0.24753103915684152
      ],
      "orientation_vector": [
        0.0,
        1.0
      ],
      "half_bracket_size": 0.5001001599500252,
      "bond": [
        1,
        36
      ],
      "fragment": "F1",
      "backbone": true,
      "suspended_anchor_atom": null,
      "suspended_reason": null,
      "source_label": "F1/fragments[2]",
      "marker_id": "14",
      "side": "right",
      "connection_group": ">1",
      "marker_type_index": 4
    },
    {
      "id": 6,
      "bracket_kind": "backbone",
      "pairing_id": "F1/connected",
      "group_id": "$overall",
      "ru_midpoint": [
        -1.437503449636926,
        -0.270320827519553
      ],
      "bond_midpoint": [
        -5.703010701340522,
        -0.24763813651284344
      ],
      "orientation_vector": [
        0.0,
        1.0
      ],
      "half_bracket_size": 7.500229039676428,
      "bond": [
        0,
        4
      ],
      "fragment": "F1",
      "backbone": true,
      "suspended_anchor_atom": null,
      "suspended_reason": null,
      "source_label": "F1/connected",
      "marker_id": "connected-overall-left",
      "side": "left",
      "connection_group": "$overall",
      "marker_type_index": null
    },
    {
      "id": 7,
      "bracket_kind": "backbone",
      "pairing_id": "F1/connected",
      "group_id": "$overall",
      "ru_midpoint": [
        -1.437503449636926,
        -0.270320827519553
      ],
      "bond_midpoint": [
        3.1045960691728114,
        -0.24753103915684152
      ],
      "orientation_vector": [
        0.0,
        1.0
      ],
      "half_bracket_size": 7.500229039676428,
      "bond": [
        1,
        36
      ],
      "fragment": "F1",
      "backbone": true,
      "suspended_anchor_atom": null,
      "suspended_reason": null,
      "source_label": "F1/connected",
      "marker_id": "connected-overall-right",
      "side": "right",
      "connection_group": "$overall",
      "marker_type_index": null
    }
  ]
}
