
     RDKit          2D

  0  0  0  0  0  0  0  0  0  0999 V3000
M  V30 BEGIN CTAB
M  V30 COUNTS 18 18 4 0 0
M  V30 BEGIN ATOM
M  V30 1 H -3.897269 -0.448570 0.000000 0
M  V30 2 H 3.896893 0.051404 0.000000 0
M  V30 3 C -3.031211 0.051404 0.000000 0
M  V30 4 C -2.165154 -0.448570 0.000000 0
M  V30 5 C -2.165154 -1.448572 0.000000 0
M  V30 6 N -2.165154 -2.448574 0.000000 0
M  V30 7 C -1.299113 0.051404 0.000000 0
M  V30 8 C -0.433109 -0.448497 0.000000 0
M  V30 9 C 0.432887 0.051404 0.000000 0
M  V30 10 C 1.298892 -0.448497 0.000000 0
M  V30 11 C 2.164975 0.051404 0.000000 0
M  V30 12 C 3.030934 -0.448604 0.000000 0
M  V30 13 C 3.030934 -1.448606 0.000000 0
M  V30 14 C 2.164732 -1.948539 0.000000 0
M  V30 15 C 2.164932 -2.948541 0.000000 0
M  V30 16 C 3.030734 -3.448610 0.000000 0
M  V30 17 C 3.896936 -2.948677 0.000000 0
M  V30 18 C 3.896736 -1.948675 0.000000 0
M  V30 END ATOM
M  V30 BEGIN BOND
M  V30 1 1 3 4
M  V30 2 1 4 5
M  V30 3 3 5 6
M  V30 4 1 7 8
M  V30 5 2 8 9
M  V30 6 1 9 10
M  V30 7 1 4 7
M  V30 8 1 11 12
M  V30 9 1 12 13
M  V30 10 2 13 14
M  V30 11 1 14 15
M  V30 12 2 15 16
M  V30 13 1 16 17
M  V30 14 2 17 18
M  V30 15 1 18 13
M  V30 16 1 10 11
M  V30 17 1 1 3
M  V30 18 1 2 12
M  V30 END BOND
M  V30 BEGIN SGROUP
M  V30 1 SRU 0 ATOMS=(4 1 3 4 7) CBONDS=(2 7 17) -
M  V30 BRKXYZ=(9 -3.4642 0.3014 0 -3.4642 -0.6986 0 0 0 0) BRKXYZ=(9 -1.7321 0-
M  V30 .3014 0 -1.7321 -0.6986 0 0 0 0)
M  V30 2 SRU 0 ATOMS=(4 4 7 10 11) CBONDS=(2 7 16) -
M  V30 BRKXYZ=(9 -1.7321 0.3014 0 -1.7321 -0.6986 0 0 0 0) BRKXYZ=(9 1.7319 0.-
M  V30 3015 0 1.7319 -0.6986 0 0 0 0)
M  V30 3 SRU 0 ATOMS=(4 2 10 11 12) CBONDS=(2 16 18) -
M  V30 BRKXYZ=(9 1.7319 0.3015 0 1.7319 -0.6986 0 0 0 0) BRKXYZ=(9 3.4639 0.30-
M  V30 14 0 3.4639 -0.6986 0 0 0 0)
M  V30 4 SRU 0 ATOMS=(4 1 2 3 12) CBONDS=(2 17 18) -
M  V30 BRKXYZ=(9 -3.4642 2.3014 0 -3.4642 -2.6986 0 0 0 0) BRKXYZ=(9 3.4639 2.-
M  V30 3014 0 3.4639 -2.6986 0 0 0 0)
M  V30 END SGROUP
M  V30 END CTAB
M  END
>  <BIGSMILES_BRACKET_RECORDS_JSON>
{
  "records": [
    {
      "id": 0,
      "bracket_kind": "backbone",
      "pairing_id": "F1/fragments[0]",
      "group_id": "$a:2",
      "ru_midpoint": [
        -2.598177924256734,
        -0.19858350012955933
      ],
      "bond_midpoint": [
        -3.464239959914165,
        -0.19858300015800023
      ],
      "orientation_vector": [
        0.0,
        1.0
      ],
      "half_bracket_size": 0.5000070589092322,
      "bond": [
        0,
        2
      ],
      "fragment": "F1",
      "backbone": true,
      "suspended_anchor_atom": null,
      "suspended_reason": null,
      "source_label": "F1/fragments[0]",
      "marker_id": "0",
      "side": "left",
      "connection_group": "$a",
      "marker_type_index": 2
    },
    {
      "id": 1,
      "bracket_kind": "backbone",
      "pairing_id": "F1/fragments[0]",
      "group_id": "$a:2",
      "ru_midpoint": [
        -2.598177924256734,
        -0.19858350012955933
      ],
      "bond_midpoint": [
        -1.7321335890476168,
        -0.19858300015800034
      ],
      "orientation_vector": [
        0.0,
        1.0
      ],
      "half_bracket_size": 0.5000070589092322,
      "bond": [
        3,
        6
      ],
      "fragment": "F1",
      "backbone": true,
      "suspended_anchor_atom": null,
      "suspended_reason": null,
      "source_label": "F1/fragments[0]",
      "marker_id": "5",
      "side": "right",
      "connection_group": "$a",
      "marker_type_index": 2
    },
    {
      "id": 2,
      "bracket_kind": "backbone",
      "pairing_id": "F1/fragments[1]",
      "group_id": "$a:2",
      "ru_midpoint": [
        -0.00011064783257630495,
        -0.1985465505530648
      ],
      "bond_midpoint": [
        -1.7321335890476168,
        -0.19858300015800034
      ],
      "orientation_vector": [
        0.0,
        1.0
      ],
      "half_bracket_size": 0.5000070589092322,
      "bond": [
        3,
        6
      ],
      "fragment": "F1",
      "backbone": true,
      "suspended_anchor_atom": null,
      "suspended_reason": null,
      "source_label": "F1/fragments[1]",
      "marker_id": "0",
      "side": "left",
      "connection_group": "$a",
      "marker_type_index": 2
    },
    {
      "id": 3,
      "bracket_kind": "backbone",
      "pairing_id": "F1/fragments[1]",
      "group_id": "$a:2",
      "ru_midpoint": [
        -0.00011064783257630495,
        -0.1985465505530648
      ],
      "bond_midpoint": [
        1.7319333340146041,
        -0.1985465505530648
      ],
      "orientation_vector": [
        0.0,
        1.0
      ],
      "half_bracket_size": 0.5000070589092322,
      "bond": [
        9,
        10
      ],
      "fragment": "F1",
      "backbone": true,
      "suspended_anchor_atom": null,
      "suspended_reason": null,
      "source_label": "F1/fragments[1]",
      "marker_id": "5",
      "side": "right",
      "connection_group": "$a",
      "marker_type_index": 2
    },
    {
      "id": 4,
      "bracket_kind": "backbone",
      "pairing_id": "F1/fragments[2]",
      "group_id": "$a:2",
      "ru_midpoint": [
        2.597910278790148,
        -0.19862155809245796
      ],
      "bond_midpoint": [
        1.7319333340146041,
        -0.1985465505530648
      ],
      "orientation_vector": [
        0.0,
        1.0
      ],
      "half_bracket_size": 0.5000070589092322,
      "bond": [
        9,
        10
      ],
      "fragment": "F1",
      "backbone": true,
      "suspended_anchor_atom": null,
      "suspended_reason": null,
      "source_label": "F1/fragments[2]",
      "marker_id": "0",
      "side": "left",
      "connection_group": "$a",
      "marker_type_index": 2
    },
    {
      "id": 5,
      "bracket_kind": "backbone",
      "pairing_id": "F1/fragments[2]",
      "group_id": "$a:2",
      "ru_midpoint": [
        2.597910278790148,
        -0.19862155809245796
      ],
      "bond_midpoint": [
        3.4639135191266544,
        -0.1986000000000001
      ],
      "orientation_vector": [
        0.0,
        1.0
      ],
      "half_bracket_size": 0.5000070589092322,
      "bond": [
        1,
        11
      ],
      "fragment": "F1",
      "backbone": true,
      "suspended_anchor_atom": null,
      "suspended_reason": null,
      "source_label": "F1/fragments[2]",
      "marker_id": "9",
      "side": "right",
      "connection_group": "$a",
      "marker_type_index": 2
    },
    {
      "id": 6,
      "bracket_kind": "backbone",
      "pairing_id": "F1/connected",
      "group_id": "$overall",
      "ru_midpoint": [
        -0.00015632864279879755,
        -0.1985938783484434
      ],
      "bond_midpoint": [
        -3.464239959914165,
        -0.19858300015800023
      ],
      "orientation_vector": [
        0.0,
        1.0
      ],
      "half_bracket_size": 2.4999770592212336,
      "bond": [
        0,
        2
      ],
      "fragment": "F1",
      "backbone": true,
      "suspended_anchor_atom": null,
      "suspended_reason": null,
      "source_label": "F1/connected",
      "marker_id": "connected-overall-left",
      "side": "left",
      "connection_group": "$overall",
      "marker_type_index": null
    },
    {
      "id": 7,
      "bracket_kind": "backbone",
      "pairing_id": "F1/connected",
      "group_id": "$overall",
      "ru_midpoint": [
        -0.00015632864279879755,
        -0.1985938783484434
      ],
      "bond_midpoint": [
        3.4639135191266544,
        -0.1986000000000001
      ],
      "orientation_vector": [
        0.0,
        1.0
      ],
      "half_bracket_size": 2.4999770592212336,
      "bond": [
        1,
        11
      ],
      "fragment": "F1",
      "backbone": true,
      "suspended_anchor_atom": null,
      "suspended_reason": null,
      "source_label": "F1/connected",
      "marker_id": "connected-overall-right",
      "side": "right",
      "connection_group": "$overall",
      "marker_type_index": null
    }
  ]
}
