
     RDKit          2D

  0  0  0  0  0  0  0  0  0  0999 V3000
M  V30 BEGIN CTAB
M  V30 COUNTS 28 28 1 0 0
M  V30 BEGIN ATOM
M  V30 1 H -6.317407 0.051385 0.000000 0
M  V30 2 H 6.317104 0.051469 0.000000 0
M  V30 3 N -5.451478 -0.448631 0.000000 0
M  V30 4 C -5.451478 -1.448563 0.000000 0
M  V30 5 C -6.451510 -1.448390 0.000000 0
M  V30 6 C -5.951568 -2.314449 0.000000 0
M  V30 7 C -4.585419 -1.948553 0.000000 0
M  V30 8 C -4.585549 0.051385 0.000000 0
M  V30 9 C -3.719611 -0.448631 0.000000 0
M  V30 10 N -2.853682 0.051385 0.000000 0
M  V30 11 C -2.853682 -0.948615 0.000000 0
M  V30 12 C -3.853682 -0.948615 0.000000 0
M  V30 13 C -3.353789 -1.814616 0.000000 0
M  V30 14 C -1.987682 -1.448723 0.000000 0
M  V30 15 C -1.477002 -0.448631 0.000000 0
M  V30 16 O -1.477000 -1.448631 0.000000 0
M  V30 17 N -0.611073 0.051385 0.000000 0
M  V30 18 C 0.254865 -0.448631 0.000000 0
M  V30 19 C 1.120890 0.051369 0.000000 0
M  V30 20 C 1.120890 1.051446 0.000000 0
M  V30 21 C 1.986982 1.551484 0.000000 0
M  V30 22 C 2.853074 1.051446 0.000000 0
M  V30 23 C 2.853074 0.051369 0.000000 0
M  V30 24 C 1.986982 -0.448669 0.000000 0
M  V30 25 C 3.719099 -0.448631 0.000000 0
M  V30 26 N 4.585095 0.051469 0.000000 0
M  V30 27 C 5.451100 -0.448631 0.000000 0
M  V30 28 O 5.451102 -1.448631 0.000000 0
M  V30 END ATOM
M  V30 BEGIN BOND
M  V30 1 1 3 4
M  V30 2 1 4 5
M  V30 3 1 4 6
M  V30 4 1 4 7
M  V30 5 1 3 8
M  V30 6 1 8 9
M  V30 7 1 9 10
M  V30 8 1 10 11
M  V30 9 1 11 12
M  V30 10 1 11 13
M  V30 11 1 11 14
M  V30 12 1 10 15
M  V30 13 2 15 16
M  V30 14 1 15 17
M  V30 15 1 17 18
M  V30 16 1 18 19
M  V30 17 1 19 20
M  V30 18 1 20 21
M  V30 19 1 21 22
M  V30 20 1 22 23
M  V30 21 1 23 24
M  V30 22 1 23 25
M  V30 23 1 25 26
M  V30 24 1 26 27
M  V30 25 2 27 28
M  V30 26 1 24 19
M  V30 27 1 1 3
M  V30 28 1 2 27
M  V30 END BOND
M  V30 BEGIN SGROUP
M  V30 1 SRU 0 ATOMS=(4 1 2 3 27) CBONDS=(2 27 28) -
M  V30 BRKXYZ=(9 -5.8844 1.8015 0 -5.8844 -2.1988 0 0 0 0) BRKXYZ=(9 5.8841 1.-
M  V30 8016 0 5.8841 -2.1987 0 0 0 0)
M  V30 END SGROUP
M  V30 END CTAB
M  END
>  <BIGSMILES_BRACKET_RECORDS_JSON>
{
  "records": [
    {
      "id": 0,
      "bracket_kind": "backbone",
      "pairing_id": "F1/fragments[0]",
      "group_id": "<1:3",
      "ru_midpoint": [
        0.4019059154812661,
        0.05140282113273931
      ],
      "bond_midpoint": [
        -5.8844427025393085,
        -0.19862289837034153
      ],
      "orientation_vector": [
        0.0,
        1.0
      ],
      "half_bracket_size": 2.0001534614664163,
      "bond": [
        0,
        2
      ],
      "fragment": "F1",
      "backbone": true,
      "suspended_anchor_atom": null,
      "suspended_reason": null,
      "source_label": "F1/fragments[0]",
      "marker_id": "0",
      "side": "left",
      "connection_group": "<1",
      "marker_type_index": 3
    },
    {
      "id": 1,
      "bracket_kind": "backbone",
      "pairing_id": "F1/fragments[0]",
      "group_id": ">1:4",
      "ru_midpoint": [
        0.4019059154812661,
        0.05140282113273931
      ],
      "bond_midpoint": [
        5.884101922037312,
        -0.1985808173166963
      ],
      "orientation_vector": [
        0.0,
        1.0
      ],
      "half_bracket_size": 2.0001534614664163,
      "bond": [
        1,
        26
      ],
      "fragment": "F1",
      "backbone": true,
      "suspended_anchor_atom": null,
      "suspended_reason": null,
      "source_label": "F1/fragments[0]",
      "marker_id": "27",
      "side": "right",
      "connection_group": ">1",
      "marker_type_index": 4
    }
  ]
}
