
     RDKit          2D

  0  0  0  0  0  0  0  0  0  0999 V3000
M  V30 BEGIN CTAB
M  V30 COUNTS 22 22 3 0 0
M  V30 BEGIN ATOM
M  V30 1 H -3.031423 0.051363 0.000000 0
M  V30 2 H 3.030830 -0.448563 0.000000 0
M  V30 3 C -2.165409 -0.448660 0.000000 0
M  V30 4 N -1.299394 0.051363 0.000000 0
M  V30 5 C -1.299394 1.051377 0.000000 0
M  V30 6 O -0.433576 1.551340 0.000000 0
M  V30 7 C -2.165559 1.551228 0.000000 0
M  V30 8 C -0.433444 -0.448660 0.000000 0
M  V30 9 C 0.432568 0.051363 0.000000 0
M  V30 10 N 1.298636 -0.448563 0.000000 0
M  V30 11 C 1.298636 -1.448595 0.000000 0
M  V30 12 O 2.164609 -1.948686 0.000000 0
M  V30 13 C 0.432390 -1.948608 0.000000 0
M  V30 14 C 0.432290 -2.948813 0.000000 0
M  V30 15 N -0.432936 -3.448262 0.000000 0
M  V30 16 C -0.538857 -4.442467 0.000000 0
M  V30 17 O 0.205022 -5.112455 0.000000 0
M  V30 18 C -1.516291 -4.651019 0.000000 0
M  V30 19 C -2.016450 -3.784226 0.000000 0
M  V30 20 C -1.346844 -3.042206 0.000000 0
M  V30 21 O -1.554668 -2.063114 0.000000 0
M  V30 22 C 2.164733 0.051363 0.000000 0
M  V30 END ATOM
M  V30 BEGIN BOND
M  V30 1 1 3 4
M  V30 2 1 4 5
M  V30 3 2 5 6
M  V30 4 1 5 7
M  V30 5 1 4 8
M  V30 6 1 9 10
M  V30 7 1 10 11
M  V30 8 2 11 12
M  V30 9 1 11 13
M  V30 10 1 13 14
M  V30 11 1 14 15
M  V30 12 1 15 16
M  V30 13 2 16 17
M  V30 14 1 16 18
M  V30 15 2 18 19
M  V30 16 1 19 20
M  V30 17 2 20 21
M  V30 18 1 10 22
M  V30 19 1 20 15
M  V30 20 1 8 9
M  V30 21 1 1 3
M  V30 22 1 2 22
M  V30 END BOND
M  V30 BEGIN SGROUP
M  V30 1 SRU 0 ATOMS=(4 1 3 8 9) CBONDS=(2 20 21) -
M  V30 BRKXYZ=(9 -2.5984 -0.6987 0 -2.5984 0.3014 0 0 0 0) BRKXYZ=(9 -0.0004 --
M  V30 0.6987 0 -0.0004 0.3014 0 0 0 0)
M  V30 2 SRU 0 ATOMS=(4 2 8 9 22) CBONDS=(2 20 22) -
M  V30 BRKXYZ=(9 -0.0004 0.3014 0 -0.0004 -0.6987 0 0 0 0) BRKXYZ=(9 2.5978 0.-
M  V30 3014 0 2.5978 -0.6986 0 0 0 0)
M  V30 3 SRU 0 ATOMS=(4 1 2 3 22) CBONDS=(2 21 22) -
M  V30 BRKXYZ=(9 -2.5984 -6.8624 0 -2.5984 6.4651 0 0 0 0) BRKXYZ=(9 2.5978 -6-
M  V30 .8624 0 2.5978 6.4652 0 0 0 0)
M  V30 END SGROUP
M  V30 END CTAB
M  END
>  <BIGSMILES_BRACKET_RECORDS_JSON>
{
  "records": [
    {
      "id": 0,
      "bracket_kind": "backbone",
      "pairing_id": "F1/fragments[0]",
      "group_id": "$a:2",
      "ru_midpoint": [
        -1.2994337733975168,
        -0.14866786706621632
      ],
      "bond_midpoint": [
        -2.5984161076888785,
        -0.1986485969794829
      ],
      "orientation_vector": [
        0.0,
        -1.0
      ],
      "half_bracket_size": 0.5000228868815642,
      "bond": [
        0,
        2
      ],
      "fragment": "F1",
      "backbone": true,
      "suspended_anchor_atom": null,
      "suspended_reason": null,
      "source_label": "F1/fragments[0]",
      "marker_id": "0",
      "side": "left",
      "connection_group": "$a",
      "marker_type_index": 2
    },
    {
      "id": 1,
      "bracket_kind": "backbone",
      "pairing_id": "F1/fragments[0]",
      "group_id": "$a:2",
      "ru_midpoint": [
        -1.2994337733975168,
        -0.14866786706621632
      ],
      "bond_midpoint": [
        -0.000438293086470809,
        -0.198648596979483
      ],
      "orientation_vector": [
        0.0,
        -1.0
      ],
      "half_bracket_size": 0.5000228868815642,
      "bond": [
        7,
        8
      ],
      "fragment": "F1",
      "backbone": true,
      "suspended_anchor_atom": null,
      "suspended_reason": null,
      "source_label": "F1/fragments[0]",
      "marker_id": "7",
      "side": "right",
      "connection_group": "$a",
      "marker_type_index": 2
    },
    {
      "id": 2,
      "bracket_kind": "backbone",
      "pairing_id": "F1/fragments[1]",
      "group_id": "$a:2",
      "ru_midpoint": [
        1.2986866881740358,
        -0.24861881125810076
      ],
      "bond_midpoint": [
        -0.000438293086470809,
        -0.198648596979483
      ],
      "orientation_vector": [
        0.0,
        1.0
      ],
      "half_bracket_size": 0.5000228868815642,
      "bond": [
        7,
        8
      ],
      "fragment": "F1",
      "backbone": true,
      "suspended_anchor_atom": null,
      "suspended_reason": null,
      "source_label": "F1/fragments[1]",
      "marker_id": "0",
      "side": "left",
      "connection_group": "$a",
      "marker_type_index": 2
    },
    {
      "id": 3,
      "bracket_kind": "backbone",
      "pairing_id": "F1/fragments[1]",
      "group_id": "$a:2",
      "ru_midpoint": [
        1.2986866881740358,
        -0.24861881125810076
      ],
      "bond_midpoint": [
        2.597781470984834,
        -0.19859999999999978
      ],
      "orientation_vector": [
        0.0,
        1.0
      ],
      "half_bracket_size": 0.5000228868815642,
      "bond": [
        1,
        21
      ],
      "fragment": "F1",
      "backbone": true,
      "suspended_anchor_atom": null,
      "suspended_reason": null,
      "source_label": "F1/fragments[1]",
      "marker_id": "15",
      "side": "right",
      "connection_group": "$a",
      "marker_type_index": 2
    },
    {
      "id": 4,
      "bracket_kind": "backbone",
      "pairing_id": "F1/connected",
      "group_id": "$overall",
      "ru_midpoint": [
        -0.00035317305347160044,
        -0.19867209923047224
      ],
      "bond_midpoint": [
        -2.5984161076888785,
        -0.1986485969794829
      ],
      "orientation_vector": [
        0.0,
        -1.0
      ],
      "half_bracket_size": 6.663794111253978,
      "bond": [
        0,
        2
      ],
      "fragment": "F1",
      "backbone": true,
      "suspended_anchor_atom": null,
      "suspended_reason": null,
      "source_label": "F1/connected",
      "marker_id": "connected-overall-left",
      "side": "left",
      "connection_group": "$overall",
      "marker_type_index": null
    },
    {
      "id": 5,
      "bracket_kind": "backbone",
      "pairing_id": "F1/connected",
      "group_id": "$overall",
      "ru_midpoint": [
        -0.00035317305347160044,
        -0.19867209923047224
      ],
      "bond_midpoint": [
        2.597781470984834,
        -0.19859999999999978
      ],
      "orientation_vector": [
        0.0,
        -1.0
      ],
      "half_bracket_size": 6.663794111253978,
      "bond": [
        1,
        21
      ],
      "fragment": "F1",
      "backbone": true,
      "suspended_anchor_atom": null,
      "suspended_reason": null,
      "source_label": "F1/connected",
      "marker_id": "connected-overall-right",
      "side": "right",
      "connection_group": "$overall",
      "marker_type_index": null
    }
  ]
}
