
     RDKit          2D

  0  0  0  0  0  0  0  0  0  0999 V3000
M  V30 BEGIN CTAB
M  V30 COUNTS 44 43 3 0 0
M  V30 BEGIN ATOM
M  V30 1 C -4.890200 -0.196018 0.000000 0
M  V30 2 C -4.024253 0.303982 0.000000 0
M  V30 3 C -4.024253 -0.696018 0.000000 0
M  V30 4 C -3.158200 -0.196018 0.000000 0
M  V30 5 O -3.158200 -1.196018 0.000000 0
M  V30 6 O -2.292137 0.303982 0.000000 0
M  V30 7 C -1.426084 -0.196018 0.000000 0
M  V30 8 C -0.560021 0.303982 0.000000 0
M  V30 9 N 0.306033 -0.196018 0.000000 0
M  V30 10 C 1.172095 0.303982 0.000000 0
M  V30 11 O 1.172097 1.303983 0.000000 0
M  V30 12 O 2.038149 -0.196018 0.000000 0
M  V30 13 C 2.904211 0.303982 0.000000 0
M  V30 14 C 3.770265 -0.196018 0.000000 0
M  V30 15 F 3.770265 0.804014 0.000000 0
M  V30 16 F 3.770265 -1.196050 0.000000 0
M  V30 17 O 8.966324 -0.196005 0.000000 0
M  V30 18 C 9.832377 0.303995 0.000000 0
M  V30 19 F 9.832377 -0.696037 0.000000 0
M  V30 20 F 9.832377 1.303920 0.000000 0
M  V30 21 C 10.698440 -0.196005 0.000000 0
M  V30 22 O 11.564494 0.303995 0.000000 0
M  V30 23 C 12.430556 -0.196005 0.000000 0
M  V30 24 O 12.430558 -1.196006 0.000000 0
M  V30 25 N 13.296610 0.303995 0.000000 0
M  V30 26 C 14.162672 -0.196005 0.000000 0
M  V30 27 C 15.028726 0.303995 0.000000 0
M  V30 28 O 15.894672 -0.196005 0.000000 0
M  V30 29 C 16.760611 0.303995 0.000000 0
M  V30 30 O 16.760609 1.303995 0.000000 0
M  V30 31 C 17.626557 -0.196005 0.000000 0
M  V30 32 C 17.626557 0.803995 0.000000 0
M  V30 33 C 18.492496 0.303995 0.000000 0
M  V30 34 C 4.636203 0.303982 0.000000 0
M  V30 35 F 4.636203 -0.696042 0.000000 0
M  V30 36 F 4.636203 1.303914 0.000000 0
M  V30 37 C 5.502257 -0.196018 0.000000 0
M  V30 38 F 5.502257 -1.196042 0.000000 0
M  V30 39 F 5.502257 0.803914 0.000000 0
M  V30 40 O 6.368319 0.303982 0.000000 0
M  V30 41 C 7.234344 -0.196018 0.000000 0
M  V30 42 F 7.234344 0.804014 0.000000 0
M  V30 43 F 7.234344 -1.195943 0.000000 0
M  V30 44 O 8.100349 0.304082 0.000000 0
M  V30 END ATOM
M  V30 BEGIN BOND
M  V30 1 1 1 2
M  V30 2 2 2 3
M  V30 3 1 2 4
M  V30 4 1 4 5
M  V30 5 1 4 6
M  V30 6 1 6 7
M  V30 7 1 7 8
M  V30 8 1 8 9
M  V30 9 1 9 10
M  V30 10 2 10 11
M  V30 11 1 10 12
M  V30 12 1 12 13
M  V30 13 1 13 14
M  V30 14 1 14 15
M  V30 15 1 14 16
M  V30 16 1 17 18
M  V30 17 1 18 19
M  V30 18 1 18 20
M  V30 19 1 18 21
M  V30 20 1 21 22
M  V30 21 1 22 23
M  V30 22 2 23 24
M  V30 23 1 23 25
M  V30 24 1 25 26
M  V30 25 1 26 27
M  V30 26 1 27 28
M  V30 27 1 28 29
M  V30 28 2 29 30
M  V30 29 1 29 31
M  V30 30 2 31 32
M  V30 31 1 31 33
M  V30 32 1 34 35
M  V30 33 1 34 36
M  V30 34 1 34 37
M  V30 35 1 37 38
M  V30 36 1 37 39
M  V30 37 1 37 40
M  V30 38 1 41 42
M  V30 39 1 41 43
M  V30 40 1 41 44
M  V30 41 1 40 41
M  V30 42 1 17 44
M  V30 43 1 14 34
M  V30 END BOND
M  V30 BEGIN SGROUP
M  V30 1 SRU 0 ATOMS=(4 14 34 40 41) CBONDS=(2 41 43) -
M  V30 BRKXYZ=(9 4.2032 -0.4461 0 4.2032 0.5541 0 0 0 0) BRKXYZ=(9 6.8013 -0.4-
M  V30 461 0 6.8013 0.5541 0 0 0 0)
M  V30 2 SRU 0 ATOMS=(4 17 40 41 44) CBONDS=(2 41 42) -
M  V30 BRKXYZ=(9 6.8013 0.5541 0 6.8013 -0.4461 0 0 0 0) BRKXYZ=(9 8.5333 0.55-
M  V30 41 0 8.5333 -0.4461 0 0 0 0)
M  V30 3 SRU 0 ATOMS=(4 14 17 34 44) CBONDS=(2 42 43) -
M  V30 BRKXYZ=(9 4.2032 -2.4460 0 4.2032 2.5539 0 0 0 0) BRKXYZ=(9 8.5333 -2.4-
M  V30 459 0 8.5333 2.5540 0 0 0 0)
M  V30 END SGROUP
M  V30 END CTAB
M  END
>  <BIGSMILES_BRACKET_RECORDS_JSON>
{
  "records": [
    {
      "id": 0,
      "bracket_kind": "backbone",
      "pairing_id": "F2/fragments[0]",
      "group_id": "<1:3",
      "ru_midpoint": [
        5.502281701240201,
        0.003982349495517359
      ],
      "bond_midpoint": [
        4.203233854174325,
        0.05398236520843669
      ],
      "orientation_vector": [
        0.0,
        -1.0
      ],
      "half_bracket_size": 0.5001001599500252,
      "bond": [
        13,
        33
      ],
      "fragment": "F2",
      "backbone": true,
      "suspended_anchor_atom": null,
      "suspended_reason": null,
      "source_label": "F2/fragments[0]",
      "marker_id": "0",
      "side": "left",
      "connection_group": "<1",
      "marker_type_index": 3
    },
    {
      "id": 1,
      "bracket_kind": "backbone",
      "pairing_id": "F2/fragments[0]",
      "group_id": ">1:4",
      "ru_midpoint": [
        5.502281701240201,
        0.003982349495517359
      ],
      "bond_midpoint": [
        6.8013317985332025,
        0.053982365208436855
      ],
      "orientation_vector": [
        0.0,
        -1.0
      ],
      "half_bracket_size": 0.5001001599500252,
      "bond": [
        39,
        40
      ],
      "fragment": "F2",
      "backbone": true,
      "suspended_anchor_atom": null,
      "suspended_reason": null,
      "source_label": "F2/fragments[0]",
      "marker_id": "8",
      "side": "right",
      "connection_group": ">1",
      "marker_type_index": 4
    },
    {
      "id": 2,
      "bracket_kind": "backbone",
      "pairing_id": "F2/fragments[1]",
      "group_id": "<1:3",
      "ru_midpoint": [
        7.667346715458015,
        0.054032366618851704
      ],
      "bond_midpoint": [
        6.8013317985332025,
        0.053982365208436855
      ],
      "orientation_vector": [
        0.0,
        1.0
      ],
      "half_bracket_size": 0.5001001599500252,
      "bond": [
        39,
        40
      ],
      "fragment": "F2",
      "backbone": true,
      "suspended_anchor_atom": null,
      "suspended_reason": null,
      "source_label": "F2/fragments[1]",
      "marker_id": "0",
      "side": "left",
      "connection_group": "<1",
      "marker_type_index": 3
    },
    {
      "id": 3,
      "bracket_kind": "backbone",
      "pairing_id": "F2/fragments[1]",
      "group_id": ">1:4",
      "ru_midpoint": [
        7.667346715458015,
        0.054032366618851704
      ],
      "bond_midpoint": [
        8.533336321031618,
        0.054038532625744096
      ],
      "orientation_vector": [
        0.0,
        1.0
      ],
      "half_bracket_size": 0.5001001599500252,
      "bond": [
        16,
        43
      ],
      "fragment": "F2",
      "backbone": true,
      "suspended_anchor_atom": null,
      "suspended_reason": null,
      "source_label": "F2/fragments[1]",
      "marker_id": "5",
      "side": "right",
      "connection_group": ">1",
      "marker_type_index": 4
    },
    {
      "id": 4,
      "bracket_kind": "backbone",
      "pairing_id": "F2/connected",
      "group_id": "$overall",
      "ru_midpoint": [
        6.368296289783808,
        0.01828235438789856
      ],
      "bond_midpoint": [
        4.203233854174325,
        0.05398236520843669
      ],
      "orientation_vector": [
        0.0,
        -1.0
      ],
      "half_bracket_size": 2.4999566745034567,
      "bond": [
        13,
        33
      ],
      "fragment": "F2",
      "backbone": true,
      "suspended_anchor_atom": null,
      "suspended_reason": null,
      "source_label": "F2/connected",
      "marker_id": "connected-overall-left",
      "side": "left",
      "connection_group": "$overall",
      "marker_type_index": null
    },
    {
      "id": 5,
      "bracket_kind": "backbone",
      "pairing_id": "F2/connected",
      "group_id": "$overall",
      "ru_midpoint": [
        6.368296289783808,
        0.01828235438789856
      ],
      "bond_midpoint": [
        8.533336321031618,
        0.054038532625744096
      ],
      "orientation_vector": [
        0.0,
        -1.0
      ],
      "half_bracket_size": 2.4999566745034567,
      "bond": [
        16,
        43
      ],
      "fragment": "F2",
      "backbone": true,
      "suspended_anchor_atom": null,
      "suspended_reason": null,
      "source_label": "F2/connected",
      "marker_id": "connected-overall-right",
      "side": "right",
      "connection_group": "$overall",
      "marker_type_index": null
    }
  ]
}
