
     RDKit          2D

  0  0  0  0  0  0  0  0  0  0999 V3000
M  V30 BEGIN CTAB
M  V30 COUNTS 38 39 1 0 0
M  V30 BEGIN ATOM
M  V30 1 H -5.933867 -0.188293 0.000000 0
M  V30 2 H 5.203855 0.311707 0.000000 0
M  V30 3 C -4.933867 -0.188293 0.000000 0
M  V30 4 O -4.933867 -1.674308 0.000000 0
M  V30 5 C -5.773154 -2.132233 0.000000 0
M  V30 6 O -6.613614 -1.602927 0.000000 0
M  V30 7 C -5.796104 -3.123154 0.000000 0
M  V30 8 O -4.435945 -1.050718 0.000000 0
M  V30 9 C -3.440102 -1.050718 0.000000 0
M  V30 10 C -2.936086 -1.923701 0.000000 0
M  V30 11 O -1.948981 -1.968568 0.000000 0
M  V30 12 C -1.506840 -2.871250 0.000000 0
M  V30 13 O -2.067181 -3.706960 0.000000 0
M  V30 14 C -0.513755 -2.939513 0.000000 0
M  V30 15 C -2.942181 -0.188293 0.000000 0
M  V30 16 C -3.440102 0.674132 0.000000 0
M  V30 17 C -4.435945 0.674132 0.000000 0
M  V30 18 O -4.936764 1.541576 0.000000 0
M  V30 19 O -2.940147 1.540081 0.000000 0
M  V30 20 O -0.868450 -0.188293 0.000000 0
M  V30 21 C 1.205280 -0.188293 0.000000 0
M  V30 22 O 1.205280 -1.182394 0.000000 0
M  V30 23 C 0.338604 -1.665723 0.000000 0
M  V30 24 O -0.518129 -1.149516 0.000000 0
M  V30 25 C 0.322777 -2.662241 0.000000 0
M  V30 26 C 1.704924 -1.053701 0.000000 0
M  V30 27 O 0.448656 -3.229620 0.000000 0
M  V30 28 C 2.704211 -1.053701 0.000000 0
M  V30 29 O 3.204052 -1.919451 0.000000 0
M  V30 30 C 3.203855 -0.188293 0.000000 0
M  V30 31 C 2.704211 0.677115 0.000000 0
M  V30 32 O 1.704924 0.677115 0.000000 0
M  V30 33 C 3.193602 1.524766 0.000000 0
M  V30 34 O 4.184237 1.501270 0.000000 0
M  V30 35 C 4.693888 2.344076 0.000000 0
M  V30 36 O 4.209407 3.215451 0.000000 0
M  V30 37 C 5.691184 2.322768 0.000000 0
M  V30 38 O 4.203855 -0.188293 0.000000 0
M  V30 END ATOM
M  V30 BEGIN BOND
M  V30 1 1 3 4
M  V30 2 1 4 5
M  V30 3 2 5 6
M  V30 4 1 5 7
M  V30 5 1 3 8
M  V30 6 1 8 9
M  V30 7 1 9 10
M  V30 8 1 10 11
M  V30 9 1 11 12
M  V30 10 2 12 13
M  V30 11 1 12 14
M  V30 12 1 9 15
M  V30 13 1 15 16
M  V30 14 1 16 17
M  V30 15 1 17 18 CFG=1
M  V30 16 1 16 19
M  V30 17 1 15 20 CFG=1
M  V30 18 1 21 20 CFG=3
M  V30 19 1 21 22
M  V30 20 1 22 23
M  V30 21 2 23 24
M  V30 22 1 23 25
M  V30 23 1 21 26
M  V30 24 1 26 27 CFG=3
M  V30 25 1 26 28
M  V30 26 1 28 29
M  V30 27 1 28 30
M  V30 28 1 30 31
M  V30 29 1 31 32
M  V30 30 1 31 33
M  V30 31 1 33 34
M  V30 32 1 34 35
M  V30 33 2 35 36
M  V30 34 1 35 37
M  V30 35 1 30 38 CFG=3
M  V30 36 1 17 3
M  V30 37 1 32 21
M  V30 38 1 3 1 CFG=1
M  V30 39 1 2 38
M  V30 END BOND
M  V30 BEGIN SGROUP
M  V30 1 SRU 0 ATOMS=(4 1 2 3 38) CBONDS=(2 38 39) -
M  V30 BRKXYZ=(9 -5.4339 -1.9191 0 -5.4339 1.5425 0 0 0 0) BRKXYZ=(9 4.7039 -1-
M  V30 .6691 0 4.7039 1.7925 0 0 0 0)
M  V30 END SGROUP
M  V30 END CTAB
M  END
>  <BIGSMILES_BRACKET_RECORDS_JSON>
{
  "records": [
    {
      "id": 0,
      "bracket_kind": "backbone",
      "pairing_id": "F1/fragments[0]",
      "group_id": "<1:3",
      "ru_midpoint": [
        -0.4287460220339112,
        -0.21945585907458598
      ],
      "bond_midpoint": [
        -5.433866833555506,
        -0.18829289527940174
      ],
      "orientation_vector": [
        0.0,
        -1.0
      ],
      "half_bracket_size": 1.7308162074668072,
      "bond": [
        0,
        2
      ],
      "fragment": "F1",
      "backbone": true,
      "suspended_anchor_atom": null,
      "suspended_reason": null,
      "source_label": "F1/fragments[0]",
      "marker_id": "0",
      "side": "left",
      "connection_group": "<1",
      "marker_type_index": 3
    },
    {
      "id": 1,
      "bracket_kind": "backbone",
      "pairing_id": "F1/fragments[0]",
      "group_id": ">1:4",
      "ru_midpoint": [
        -0.4287460220339112,
        -0.21945585907458598
      ],
      "bond_midpoint": [
        4.70385457947201,
        0.06170710472059823
      ],
      "orientation_vector": [
        0.0,
        -1.0
      ],
      "half_bracket_size": 1.7308162074668072,
      "bond": [
        1,
        37
      ],
      "fragment": "F1",
      "backbone": true,
      "suspended_anchor_atom": null,
      "suspended_reason": null,
      "source_label": "F1/fragments[0]",
      "marker_id": "37",
      "side": "right",
      "connection_group": ">1",
      "marker_type_index": 4
    }
  ]
}
