
     RDKit          2D

  0  0  0  0  0  0  0  0  0  0999 V3000
M  V30 BEGIN CTAB
M  V30 COUNTS 8 7 1 0 0
M  V30 BEGIN ATOM
M  V30 1 H -2.598021 -0.448500 0.000000 0
M  V30 2 H 2.598181 -0.448500 0.000000 0
M  V30 3 C -1.732025 0.051300 0.000000 0
M  V30 4 C -0.866028 -0.448500 0.000000 0
M  V30 5 O -0.000024 0.051300 0.000000 0
M  V30 6 C 0.865772 -0.448500 0.000000 0
M  V30 7 O 0.865670 -1.448500 0.000000 0
M  V30 8 O 1.731976 0.051300 0.000000 0
M  V30 END ATOM
M  V30 BEGIN BOND
M  V30 1 1 3 4
M  V30 2 1 4 5
M  V30 3 1 5 6
M  V30 4 2 6 7
M  V30 5 1 6 8
M  V30 6 1 1 3
M  V30 7 1 2 8
M  V30 END BOND
M  V30 BEGIN SGROUP
M  V30 1 SRU 0 ATOMS=(4 1 2 3 8) CBONDS=(2 6 7) -
M  V30 BRKXYZ=(9 -2.1650 0.3012 0 -2.1650 -0.6984 0 0 0 0) BRKXYZ=(9 2.1651 0.-
M  V30 3012 0 2.1651 -0.6984 0 0 0 0)
M  V30 END SGROUP
M  V30 END CTAB
M  END
>  <BIGSMILES_BRACKET_RECORDS_JSON>
{
  "records": [
    {
      "id": 0,
      "bracket_kind": "backbone",
      "pairing_id": "F1/fragments[0]",
      "group_id": "<1:3",
      "ru_midpoint": [
        4.372005598596296e-05,
        -0.23425162197133864
      ],
      "bond_midpoint": [
        -2.1650229968579224,
        -0.19860000000000005
      ],
      "orientation_vector": [
        0.0,
        1.0
      ],
      "half_bracket_size": 0.49980007922635183,
      "bond": [
        0,
        2
      ],
      "fragment": "F1",
      "backbone": true,
      "suspended_anchor_atom": null,
      "suspended_reason": null,
      "source_label": "F1/fragments[0]",
      "marker_id": "0",
      "side": "left",
      "connection_group": "<1",
      "marker_type_index": 3
    },
    {
      "id": 1,
      "bracket_kind": "backbone",
      "pairing_id": "F1/fragments[0]",
      "group_id": ">1:4",
      "ru_midpoint": [
        4.372005598596296e-05,
        -0.23425162197133864
      ],
      "bond_midpoint": [
        2.1650784176364386,
        -0.1986
      ],
      "orientation_vector": [
        0.0,
        1.0
      ],
      "half_bracket_size": 0.49980007922635183,
      "bond": [
        1,
        7
      ],
      "fragment": "F1",
      "backbone": true,
      "suspended_anchor_atom": null,
      "suspended_reason": null,
      "source_label": "F1/fragments[0]",
      "marker_id": "7",
      "side": "right",
      "connection_group": ">1",
      "marker_type_index": 4
    }
  ]
}
