
     RDKit          2D

  0  0  0  0  0  0  0  0  0  0999 V3000
M  V30 BEGIN CTAB
M  V30 COUNTS 29 30 2 0 0
M  V30 BEGIN ATOM
M  V30 1 H -4.665298 -0.814675 0.000000 0
M  V30 2 H 4.664835 0.417475 0.000000 0
M  V30 3 C -4.165298 0.051350 0.000000 0
M  V30 4 O -3.906471 1.017307 0.000000 0
M  V30 5 C -3.665298 -0.814675 0.000000 0
M  V30 6 C -2.665288 -0.814675 0.000000 0
M  V30 7 C -2.165283 -1.680709 0.000000 0
M  V30 8 C -2.665288 -2.546744 0.000000 0
M  V30 9 C -3.665298 -2.546744 0.000000 0
M  V30 10 C -4.165303 -1.680709 0.000000 0
M  V30 11 C -2.165288 0.051350 0.000000 0
M  V30 12 O -2.424142 1.017267 0.000000 0
M  V30 13 O -1.299292 -0.448550 0.000000 0
M  V30 14 C -0.433288 0.051350 0.000000 0
M  V30 15 C 0.432709 -0.448550 0.000000 0
M  V30 16 O 1.298713 0.051350 0.000000 0
M  V30 17 C 2.164824 -0.448550 0.000000 0
M  V30 18 O 2.423706 -1.414459 0.000000 0
M  V30 19 C 2.664824 0.417475 0.000000 0
M  V30 20 C 2.164819 1.283509 0.000000 0
M  V30 21 C 2.664824 2.149544 0.000000 0
M  V30 22 C 3.664835 2.149544 0.000000 0
M  V30 23 C 4.164840 1.283509 0.000000 0
M  V30 24 C 3.664835 0.417475 0.000000 0
M  V30 25 C 4.164835 -0.448550 0.000000 0
M  V30 26 O 3.905887 -1.414371 0.000000 0
M  V30 27 C 0.432709 -1.448550 0.000000 0
M  V30 28 O 1.298709 -1.948657 0.000000 0
M  V30 29 R 1.298709 -2.948658 0.000000 3
M  V30 END ATOM
M  V30 BEGIN BOND
M  V30 1 2 3 4
M  V30 2 1 3 5
M  V30 3 2 5 6
M  V30 4 1 6 7
M  V30 5 2 7 8
M  V30 6 1 8 9
M  V30 7 2 9 10
M  V30 8 1 6 11
M  V30 9 2 11 12
M  V30 10 1 11 13
M  V30 11 1 13 14
M  V30 12 1 14 15
M  V30 13 1 15 16
M  V30 14 1 16 17
M  V30 15 2 17 18
M  V30 16 1 17 19
M  V30 17 2 19 20
M  V30 18 1 20 21
M  V30 19 2 21 22
M  V30 20 1 22 23
M  V30 21 2 23 24
M  V30 22 1 24 25
M  V30 23 2 25 26
M  V30 24 1 15 27
M  V30 25 1 27 28
M  V30 26 1 28 29
M  V30 27 1 10 5
M  V30 28 1 24 19
M  V30 29 1 1 3
M  V30 30 1 2 25
M  V30 END BOND
M  V30 BEGIN SGROUP
M  V30 1 SRU 0 ATOMS=(4 1 2 3 25) CBONDS=(2 29 30) -
M  V30 BRKXYZ=(9 -4.4153 4.3146 0 -4.4153 -5.0779 0 0 0 0) BRKXYZ=(9 4.4148 4.-
M  V30 6807 0 4.4148 -4.7118 0 0 0 0)
M  V30 2 SRU 0 ATOMS=(2 28 29) CBONDS=(1 26) -
M  V30 BRKXYZ=(9 1.7987 -2.4487 0 0.7987 -2.4487 0 0 0 0)
M  V30 END SGROUP
M  V30 END CTAB
M  END
>  <BIGSMILES_BRACKET_RECORDS_JSON>
{
  "records": [
    {
      "id": 0,
      "bracket_kind": "backbone",
      "pairing_id": "F1/fragments[0]",
      "group_id": "<1:3",
      "ru_midpoint": [
        -0.00023940145116263523,
        -0.1986141895363316
      ],
      "bond_midpoint": [
        -4.415298253278138,
        -0.3816626218845385
      ],
      "orientation_vector": [
        0.0,
        1.0
      ],
      "half_bracket_size": 4.696287125714321,
      "bond": [
        0,
        2
      ],
      "fragment": "F1",
      "backbone": true,
      "suspended_anchor_atom": null,
      "suspended_reason": null,
      "source_label": "F1/fragments[0]",
      "marker_id": "0",
      "side": "left",
      "connection_group": "<1",
      "marker_type_index": 3
    },
    {
      "id": 1,
      "bracket_kind": "backbone",
      "pairing_id": "F1/fragments[0]",
      "group_id": ">1:4",
      "ru_midpoint": [
        -0.00023940145116263523,
        -0.1986141895363316
      ],
      "bond_midpoint": [
        4.414834517843058,
        -0.01553737811546152
      ],
      "orientation_vector": [
        0.0,
        1.0
      ],
      "half_bracket_size": 4.696287125714321,
      "bond": [
        1,
        24
      ],
      "fragment": "F1",
      "backbone": true,
      "suspended_anchor_atom": null,
      "suspended_reason": null,
      "source_label": "F1/fragments[0]",
      "marker_id": "25",
      "side": "right",
      "connection_group": ">1",
      "marker_type_index": 4
    },
    {
      "id": 2,
      "bracket_kind": "pendant",
      "pairing_id": "F1/fragments[0]",
      "group_id": "<1:3",
      "ru_midpoint": [
        -0.00023940145116263523,
        -0.1986141895363316
      ],
      "bond_midpoint": [
        1.2987089462081718,
        -2.4486575999733278
      ],
      "orientation_vector": [
        1.0,
        0.0
      ],
      "half_bracket_size": 0.5000001599999748,
      "bond": [
        27,
        28
      ],
      "fragment": "F1",
      "backbone": false,
      "suspended_anchor_atom": null,
      "suspended_reason": null,
      "source_label": "F1/fragments[0]",
      "marker_id": "28",
      "side": "right",
      "connection_group": "<1",
      "marker_type_index": 3
    }
  ]
}
