
     RDKit          2D

  0  0  0  0  0  0  0  0  0  0999 V3000
M  V30 BEGIN CTAB
M  V30 COUNTS 44 45 8 0 0
M  V30 BEGIN ATOM
M  V30 1 C 2.621340 -0.326518 0.000000 0
M  V30 2 C 3.487336 0.173582 0.000000 0
M  V30 3 C 4.353341 -0.326518 0.000000 0
M  V30 4 C 4.353341 -1.326518 0.000000 0
M  V30 5 H 21.951200 -0.326536 0.000000 0
M  V30 6 C 5.219362 0.173488 0.000000 0
M  V30 7 C 6.085322 -0.326519 0.000000 0
M  V30 8 C 6.085322 -1.326521 0.000000 0
M  V30 9 C 5.219120 -1.826454 0.000000 0
M  V30 10 C 5.219320 -2.826456 0.000000 0
M  V30 11 C 6.085122 -3.326525 0.000000 0
M  V30 12 C 6.951323 -2.826592 0.000000 0
M  V30 13 C 6.951123 -1.826590 0.000000 0
M  V30 14 C 6.951383 0.173419 0.000000 0
M  V30 15 C 7.817387 -0.326481 0.000000 0
M  V30 16 C 8.683383 0.173419 0.000000 0
M  V30 17 C 8.683383 1.173419 0.000000 0
M  V30 18 C 9.549388 -0.326481 0.000000 0
M  V30 19 C 10.415471 0.173419 0.000000 0
M  V30 20 C 11.281400 -0.326597 0.000000 0
M  V30 21 C 12.147417 0.173419 0.000000 0
M  V30 22 C 12.147417 1.173443 0.000000 0
M  V30 23 C 13.013470 -0.326597 0.000000 0
M  V30 24 C 13.879486 0.173419 0.000000 0
M  V30 25 C 14.745706 -0.326682 0.000000 0
M  V30 26 C 14.745706 -1.326697 0.000000 0
M  V30 27 C 15.611697 -1.826760 0.000000 0
M  V30 28 C 13.879542 -1.826547 0.000000 0
M  V30 29 C 15.889407 0.173419 0.000000 0
M  V30 30 C 16.755412 -0.326481 0.000000 0
M  V30 31 C 16.755412 0.673443 0.000000 0
M  V30 32 C 16.755412 -1.326406 0.000000 0
M  V30 33 C 15.889519 -1.826500 0.000000 0
M  V30 34 C 17.621434 0.173525 0.000000 0
M  V30 35 C 18.487393 -0.326482 0.000000 0
M  V30 36 C 18.487393 -1.326484 0.000000 0
M  V30 37 C 17.621191 -1.826418 0.000000 0
M  V30 38 C 17.621391 -2.826419 0.000000 0
M  V30 39 C 18.487193 -3.326489 0.000000 0
M  V30 40 C 19.353395 -2.826555 0.000000 0
M  V30 41 C 19.353195 -1.826554 0.000000 0
M  V30 42 C 19.353370 0.173602 0.000000 0
M  V30 43 C 20.219366 -0.326498 0.000000 0
M  V30 44 O 21.085254 0.173602 0.000000 0
M  V30 END ATOM
M  V30 BEGIN BOND
M  V30 1 1 1 2
M  V30 2 1 2 3
M  V30 3 1 3 4
M  V30 4 1 6 7
M  V30 5 1 7 8
M  V30 6 2 8 9
M  V30 7 1 9 10
M  V30 8 2 10 11
M  V30 9 1 11 12
M  V30 10 2 12 13
M  V30 11 1 13 8
M  V30 12 1 3 6
M  V30 13 1 14 15
M  V30 14 2 15 16
M  V30 15 1 16 17
M  V30 16 1 16 18
M  V30 17 1 19 20
M  V30 18 2 20 21
M  V30 19 1 21 22
M  V30 20 1 21 23
M  V30 21 1 18 19
M  V30 22 1 24 25
M  V30 23 1 25 26
M  V30 24 2 26 27
M  V30 25 1 26 28
M  V30 26 1 23 24
M  V30 27 1 29 30
M  V30 28 1 30 31
M  V30 29 1 30 32
M  V30 30 2 32 33
M  V30 31 1 25 29
M  V30 32 1 7 14
M  V30 33 1 34 35
M  V30 34 1 35 36
M  V30 35 2 36 37
M  V30 36 1 37 38
M  V30 37 2 38 39
M  V30 38 1 39 40
M  V30 39 2 40 41
M  V30 40 1 41 36
M  V30 41 1 30 34
M  V30 42 1 42 43
M  V30 43 1 43 44
M  V30 44 1 35 42
M  V30 45 1 5 44
M  V30 END BOND
M  V30 BEGIN SGROUP
M  V30 1 SRU 0 ATOMS=(4 5 35 42 44) CBONDS=(2 44 45) -
M  V30 BRKXYZ=(9 18.9204 -0.5765 0 18.9204 0.4237 0 0 0 0) BRKXYZ=(9 21.5182 --
M  V30 0.5766 0 21.5182 0.4236 0 0 0 0)
M  V30 2 SRU 0 ATOMS=(4 30 34 35 42) CBONDS=(2 41 44) -
M  V30 BRKXYZ=(9 17.1884 0.4235 0 17.1884 -0.5765 0 0 0 0) BRKXYZ=(9 18.9204 0-
M  V30 .4236 0 18.9204 -0.5764 0 0 0 0)
M  V30 3 SRU 0 ATOMS=(4 7 14 18 19) CBONDS=(2 21 32) -
M  V30 BRKXYZ=(9 6.5184 -0.5767 0 6.5184 0.4236 0 0 0 0) BRKXYZ=(9 9.9824 -0.5-
M  V30 766 0 9.9824 0.4236 0 0 0 0)
M  V30 4 SRU 0 ATOMS=(4 18 19 23 24) CBONDS=(2 21 26) -
M  V30 BRKXYZ=(9 9.9824 -0.5766 0 9.9824 0.4236 0 0 0 0) BRKXYZ=(9 13.4465 -0.-
M  V30 5767 0 13.4465 0.4235 0 0 0 0)
M  V30 5 SRU 0 ATOMS=(4 23 24 25 29) CBONDS=(2 26 31) -
M  V30 BRKXYZ=(9 13.4465 0.4235 0 13.4465 -0.5767 0 0 0 0) BRKXYZ=(9 15.3176 0-
M  V30 .4235 0 15.3176 -0.5767 0 0 0 0)
M  V30 6 SRU 0 ATOMS=(4 25 29 30 34) CBONDS=(2 31 41) -
M  V30 BRKXYZ=(9 15.3176 0.4235 0 15.3176 -0.5767 0 0 0 0) BRKXYZ=(9 17.1884 0-
M  V30 .4236 0 17.1884 -0.5766 0 0 0 0)
M  V30 7 SRU 0 ATOMS=(4 7 14 30 34) CBONDS=(2 32 41) -
M  V30 BRKXYZ=(9 6.5184 -1.5766 0 6.5184 1.4235 0 0 0 0) BRKXYZ=(9 17.1884 -1.-
M  V30 5765 0 17.1884 1.4236 0 0 0 0)
M  V30 8 SRU 0 ATOMS=(4 3 6 7 14) CBONDS=(2 12 32) -
M  V30 BRKXYZ=(9 4.7864 0.4235 0 4.7864 -0.5765 0 0 0 0) BRKXYZ=(9 6.5184 0.42-
M  V30 35 0 6.5184 -0.5766 0 0 0 0)
M  V30 END SGROUP
M  V30 END CTAB
M  END
>  <BIGSMILES_BRACKET_RECORDS_JSON>
{
  "records": [
    {
      "id": 0,
      "bracket_kind": "backbone",
      "pairing_id": "F4/fragments[0]",
      "group_id": "<1:3",
      "ru_midpoint": [
        20.21929798782005,
        -0.12645839589466956
      ],
      "bond_midpoint": [
        18.920381163535104,
        -0.07644037868116423
      ],
      "orientation_vector": [
        0.0,
        -1.0
      ],
      "half_bracket_size": 0.5001001599500253,
      "bond": [
        34,
        41
      ],
      "fragment": "F4",
      "backbone": true,
      "suspended_anchor_atom": null,
      "suspended_reason": null,
      "source_label": "F4/fragments[0]",
      "marker_id": "0",
      "side": "left",
      "connection_group": "<1",
      "marker_type_index": 3
    },
    {
      "id": 1,
      "bracket_kind": "backbone",
      "pairing_id": "F4/fragments[0]",
      "group_id": ">1:4",
      "ru_midpoint": [
        20.21929798782005,
        -0.12645839589466956
      ],
      "bond_midpoint": [
        21.518227415432612,
        -0.07646718578701199
      ],
      "orientation_vector": [
        0.0,
        -1.0
      ],
      "half_bracket_size": 0.5001001599500253,
      "bond": [
        4,
        43
      ],
      "fragment": "F4",
      "backbone": true,
      "suspended_anchor_atom": null,
      "suspended_reason": null,
      "source_label": "F4/fragments[0]",
      "marker_id": "4",
      "side": "right",
      "connection_group": ">1",
      "marker_type_index": 4
    },
    {
      "id": 2,
      "bracket_kind": "backbone",
      "pairing_id": "F3/fragments[0]",
      "group_id": "$a:2",
      "ru_midpoint": [
        18.05438773483511,
        -0.07647892798305772
      ],
      "bond_midpoint": [
        17.188422695235445,
        -0.07647842797749928
      ],
      "orientation_vector": [
        0.0,
        1.0
      ],
      "half_bracket_size": 0.5000070589092322,
      "bond": [
        29,
        33
      ],
      "fragment": "F3",
      "backbone": true,
      "suspended_anchor_atom": null,
      "suspended_reason": null,
      "source_label": "F3/fragments[0]",
      "marker_id": "0",
      "side": "left",
      "connection_group": "$a",
      "marker_type_index": 2
    },
    {
      "id": 3,
      "bracket_kind": "backbone",
      "pairing_id": "F3/fragments[0]",
      "group_id": "$a:2",
      "ru_midpoint": [
        18.05438773483511,
        -0.07647892798305772
      ],
      "bond_midpoint": [
        18.920381163535104,
        -0.07644037868116423
      ],
      "orientation_vector": [
        0.0,
        1.0
      ],
      "half_bracket_size": 0.5000070589092322,
      "bond": [
        34,
        41
      ],
      "fragment": "F3",
      "backbone": true,
      "suspended_anchor_atom": null,
      "suspended_reason": null,
      "source_label": "F3/fragments[0]",
      "marker_id": "9",
      "side": "right",
      "connection_group": "$a",
      "marker_type_index": 2
    },
    {
      "id": 4,
      "bracket_kind": "backbone",
      "pairing_id": "F2/fragments[0]",
      "group_id": "$a:2",
      "ru_midpoint": [
        7.817385592071054,
        -0.12652139342041208
      ],
      "bond_midpoint": [
        6.51835219495435,
        -0.07655017578537444
      ],
      "orientation_vector": [
        0.0,
        -1.0
      ],
      "half_bracket_size": 0.5001011957426217,
      "bond": [
        6,
        13
      ],
      "fragment": "F2",
      "backbone": true,
      "suspended_anchor_atom": null,
      "suspended_reason": null,
      "source_label": "F2/fragments[0]",
      "marker_id": "0",
      "side": "left",
      "connection_group": "$a",
      "marker_type_index": 2
    },
    {
      "id": 5,
      "bracket_kind": "backbone",
      "pairing_id": "F2/fragments[0]",
      "group_id": "$a:2",
      "ru_midpoint": [
        7.817385592071054,
        -0.12652139342041208
      ],
      "bond_midpoint": [
        9.982429307752064,
        -0.07653137741887579
      ],
      "orientation_vector": [
        0.0,
        -1.0
      ],
      "half_bracket_size": 0.5001011957426217,
      "bond": [
        17,
        18
      ],
      "fragment": "F2",
      "backbone": true,
      "suspended_anchor_atom": null,
      "suspended_reason": null,
      "source_label": "F2/fragments[0]",
      "marker_id": "6",
      "side": "right",
      "connection_group": "$a",
      "marker_type_index": 2
    },
    {
      "id": 6,
      "bracket_kind": "backbone",
      "pairing_id": "F2/fragments[1]",
      "group_id": "$a:2",
      "ru_midpoint": [
        11.714439371161202,
        -0.07658929633256889
      ],
      "bond_midpoint": [
        9.982429307752064,
        -0.07653137741887579
      ],
      "orientation_vector": [
        0.0,
        -1.0
      ],
      "half_bracket_size": 0.5001011957426217,
      "bond": [
        17,
        18
      ],
      "fragment": "F2",
      "backbone": true,
      "suspended_anchor_atom": null,
      "suspended_reason": null,
      "source_label": "F2/fragments[1]",
      "marker_id": "0",
      "side": "left",
      "connection_group": "$a",
      "marker_type_index": 2
    },
    {
      "id": 7,
      "bracket_kind": "backbone",
      "pairing_id": "F2/fragments[1]",
      "group_id": "$a:2",
      "ru_midpoint": [
        11.714439371161202,
        -0.07658929633256889
      ],
      "bond_midpoint": [
        13.44647789319961,
        -0.0765892963325689
      ],
      "orientation_vector": [
        0.0,
        -1.0
      ],
      "half_bracket_size": 0.5001011957426217,
      "bond": [
        22,
        23
      ],
      "fragment": "F2",
      "backbone": true,
      "suspended_anchor_atom": null,
      "suspended_reason": null,
      "source_label": "F2/fragments[1]",
      "marker_id": "6",
      "side": "right",
      "connection_group": "$a",
      "marker_type_index": 2
    },
    {
      "id": 8,
      "bracket_kind": "backbone",
      "pairing_id": "F2/fragments[2]",
      "group_id": "$a:2",
      "ru_midpoint": [
        14.312596007296007,
        -0.07663189528250552
      ],
      "bond_midpoint": [
        13.44647789319961,
        -0.0765892963325689
      ],
      "orientation_vector": [
        0.0,
        1.0
      ],
      "half_bracket_size": 0.5001011957426217,
      "bond": [
        22,
        23
      ],
      "fragment": "F2",
      "backbone": true,
      "suspended_anchor_atom": null,
      "suspended_reason": null,
      "source_label": "F2/fragments[2]",
      "marker_id": "0",
      "side": "left",
      "connection_group": "$a",
      "marker_type_index": 2
    },
    {
      "id": 9,
      "bracket_kind": "backbone",
      "pairing_id": "F2/fragments[2]",
      "group_id": "$a:2",
      "ru_midpoint": [
        14.312596007296007,
        -0.07663189528250552
      ],
      "bond_midpoint": [
        15.31755671053383,
        -0.0766318952825056
      ],
      "orientation_vector": [
        0.0,
        1.0
      ],
      "half_bracket_size": 0.5001011957426217,
      "bond": [
        24,
        28
      ],
      "fragment": "F2",
      "backbone": true,
      "suspended_anchor_atom": null,
      "suspended_reason": null,
      "source_label": "F2/fragments[2]",
      "marker_id": "6",
      "side": "right",
      "connection_group": "$a",
      "marker_type_index": 2
    },
    {
      "id": 10,
      "bracket_kind": "backbone",
      "pairing_id": "F2/fragments[3]",
      "group_id": "$a:2",
      "ru_midpoint": [
        16.755450284678172,
        0.0067853159170179755
      ],
      "bond_midpoint": [
        15.31755671053383,
        -0.0766318952825056
      ],
      "orientation_vector": [
        0.0,
        1.0
      ],
      "half_bracket_size": 0.5001011957426217,
      "bond": [
        24,
        28
      ],
      "fragment": "F2",
      "backbone": true,
      "suspended_anchor_atom": null,
      "suspended_reason": null,
      "source_label": "F2/fragments[3]",
      "marker_id": "0",
      "side": "left",
      "connection_group": "$a",
      "marker_type_index": 2
    },
    {
      "id": 11,
      "bracket_kind": "backbone",
      "pairing_id": "F2/fragments[3]",
      "group_id": "$a:2",
      "ru_midpoint": [
        16.755450284678172,
        0.0067853159170179755
      ],
      "bond_midpoint": [
        17.188422695235445,
        -0.07647842797749928
      ],
      "orientation_vector": [
        0.0,
        1.0
      ],
      "half_bracket_size": 0.5001011957426217,
      "bond": [
        29,
        33
      ],
      "fragment": "F2",
      "backbone": true,
      "suspended_anchor_atom": null,
      "suspended_reason": null,
      "source_label": "F2/fragments[3]",
      "marker_id": "6",
      "side": "right",
      "connection_group": "$a",
      "marker_type_index": 2
    },
    {
      "id": 12,
      "bracket_kind": "backbone",
      "pairing_id": "F2/connected",
      "group_id": "$overall",
      "ru_midpoint": [
        11.774016308116186,
        -0.07656228537473514
      ],
      "bond_midpoint": [
        6.51835219495435,
        -0.07655017578537444
      ],
      "orientation_vector": [
        0.0,
        -1.0
      ],
      "half_bracket_size": 1.5000406575386986,
      "bond": [
        6,
        13
      ],
      "fragment": "F2",
      "backbone": true,
      "suspended_anchor_atom": null,
      "suspended_reason": null,
      "source_label": "F2/connected",
      "marker_id": "connected-overall-left",
      "side": "left",
      "connection_group": "$overall",
      "marker_type_index": null
    },
    {
      "id": 13,
      "bracket_kind": "backbone",
      "pairing_id": "F2/connected",
      "group_id": "$overall",
      "ru_midpoint": [
        11.774016308116186,
        -0.07656228537473514
      ],
      "bond_midpoint": [
        17.188422695235445,
        -0.07647842797749928
      ],
      "orientation_vector": [
        0.0,
        -1.0
      ],
      "half_bracket_size": 1.5000406575386986,
      "bond": [
        29,
        33
      ],
      "fragment": "F2",
      "backbone": true,
      "suspended_anchor_atom": null,
      "suspended_reason": null,
      "source_label": "F2/connected",
      "marker_id": "connected-overall-right",
      "side": "right",
      "connection_group": "$overall",
      "marker_type_index": null
    },
    {
      "id": 14,
      "bracket_kind": "backbone",
      "pairing_id": "F1/fragments[0]",
      "group_id": "$a:2",
      "ru_midpoint": [
        5.6523165027588345,
        -0.076515524704938
      ],
      "bond_midpoint": [
        4.786351463159174,
        -0.07651502469937928
      ],
      "orientation_vector": [
        0.0,
        1.0
      ],
      "half_bracket_size": 0.5000070589092322,
      "bond": [
        2,
        5
      ],
      "fragment": "F1",
      "backbone": true,
      "suspended_anchor_atom": null,
      "suspended_reason": null,
      "source_label": "F1/fragments[0]",
      "marker_id": "0",
      "side": "left",
      "connection_group": "$a",
      "marker_type_index": 2
    },
    {
      "id": 15,
      "bracket_kind": "backbone",
      "pairing_id": "F1/fragments[0]",
      "group_id": "$a:2",
      "ru_midpoint": [
        5.6523165027588345,
        -0.076515524704938
      ],
      "bond_midpoint": [
        6.51835219495435,
        -0.07655017578537444
      ],
      "orientation_vector": [
        0.0,
        1.0
      ],
      "half_bracket_size": 0.5000070589092322,
      "bond": [
        6,
        13
      ],
      "fragment": "F1",
      "backbone": true,
      "suspended_anchor_atom": null,
      "suspended_reason": null,
      "source_label": "F1/fragments[0]",
      "marker_id": "9",
      "side": "right",
      "connection_group": "$a",
      "marker_type_index": 2
    }
  ]
}
