
     RDKit          2D

  0  0  0  0  0  0  0  0  0  0999 V3000
M  V30 BEGIN CTAB
M  V30 COUNTS 37 37 7 0 0
M  V30 BEGIN ATOM
M  V30 1 C 1.778770 -0.111109 0.000000 0
M  V30 2 C 2.644766 0.388791 0.000000 0
M  V30 3 C 3.510770 -0.111109 0.000000 0
M  V30 4 C 3.510770 -1.111109 0.000000 0
M  V30 5 H 18.510973 0.388928 0.000000 0
M  V30 6 C 4.376831 0.388829 0.000000 0
M  V30 7 C 5.242836 -0.111071 0.000000 0
M  V30 8 C 6.108832 0.388829 0.000000 0
M  V30 9 C 6.108832 1.388829 0.000000 0
M  V30 10 C 6.974836 -0.111071 0.000000 0
M  V30 11 C 7.840919 0.388829 0.000000 0
M  V30 12 C 8.706849 -0.111187 0.000000 0
M  V30 13 C 9.572865 0.388829 0.000000 0
M  V30 14 C 9.572865 1.388854 0.000000 0
M  V30 15 C 10.438918 -0.111187 0.000000 0
M  V30 16 C 11.304935 0.388829 0.000000 0
M  V30 17 C 12.171155 -0.111272 0.000000 0
M  V30 18 C 12.171155 -1.111286 0.000000 0
M  V30 19 C 13.037146 -1.611349 0.000000 0
M  V30 20 C 11.304990 -1.611137 0.000000 0
M  V30 21 C 13.314856 0.388829 0.000000 0
M  V30 22 C 14.180860 -0.111071 0.000000 0
M  V30 23 C 14.180860 0.888854 0.000000 0
M  V30 24 C 14.180860 -1.110996 0.000000 0
M  V30 25 C 13.314968 -1.611090 0.000000 0
M  V30 26 C 15.046882 0.388935 0.000000 0
M  V30 27 C 15.912841 -0.111072 0.000000 0
M  V30 28 C 15.912841 -1.111074 0.000000 0
M  V30 29 C 15.046639 -1.611008 0.000000 0
M  V30 30 C 15.046839 -2.611009 0.000000 0
M  V30 31 C 15.912641 -3.111079 0.000000 0
M  V30 32 C 16.778843 -2.611145 0.000000 0
M  V30 33 C 16.778643 -1.611144 0.000000 0
M  V30 34 Si 16.778867 0.388928 0.000000 0 VAL=4
M  V30 35 C 16.778867 -0.610997 0.000000 0
M  V30 36 C 16.778867 1.388953 0.000000 0
M  V30 37 O 17.644920 -0.111088 0.000000 0
M  V30 END ATOM
M  V30 BEGIN BOND
M  V30 1 1 1 2
M  V30 2 1 2 3
M  V30 3 1 3 4
M  V30 4 1 6 7
M  V30 5 2 7 8
M  V30 6 1 8 9
M  V30 7 1 8 10
M  V30 8 1 11 12
M  V30 9 2 12 13
M  V30 10 1 13 14
M  V30 11 1 13 15
M  V30 12 1 10 11
M  V30 13 1 16 17
M  V30 14 1 17 18
M  V30 15 2 18 19
M  V30 16 1 18 20
M  V30 17 1 15 16
M  V30 18 1 21 22
M  V30 19 1 22 23
M  V30 20 1 22 24
M  V30 21 2 24 25
M  V30 22 1 17 21
M  V30 23 1 3 6
M  V30 24 1 26 27
M  V30 25 1 27 28
M  V30 26 2 28 29
M  V30 27 1 29 30
M  V30 28 2 30 31
M  V30 29 1 31 32
M  V30 30 2 32 33
M  V30 31 1 33 28
M  V30 32 1 22 26
M  V30 33 1 34 35
M  V30 34 1 34 36
M  V30 35 1 34 37
M  V30 36 1 27 34
M  V30 37 1 5 37
M  V30 END BOND
M  V30 BEGIN SGROUP
M  V30 1 SRU 0 ATOMS=(4 5 27 34 37) CBONDS=(2 36 37) -
M  V30 BRKXYZ=(9 16.3459 -0.3611 0 16.3459 0.6389 0 0 0 0) BRKXYZ=(9 18.0779 --
M  V30 0.3611 0 18.0779 0.6389 0 0 0 0)
M  V30 2 SRU 0 ATOMS=(4 22 26 27 34) CBONDS=(2 32 36) -
M  V30 BRKXYZ=(9 14.6139 0.6389 0 14.6139 -0.3611 0 0 0 0) BRKXYZ=(9 16.3459 0-
M  V30 .6389 0 16.3459 -0.3611 0 0 0 0)
M  V30 3 SRU 0 ATOMS=(4 3 6 10 11) CBONDS=(2 12 23) -
M  V30 BRKXYZ=(9 3.9438 -0.3612 0 3.9438 0.6390 0 0 0 0) BRKXYZ=(9 7.4079 -0.3-
M  V30 612 0 7.4079 0.6390 0 0 0 0)
M  V30 4 SRU 0 ATOMS=(4 10 11 15 16) CBONDS=(2 12 17) -
M  V30 BRKXYZ=(9 7.4079 -0.3612 0 7.4079 0.6390 0 0 0 0) BRKXYZ=(9 10.8719 -0.-
M  V30 3613 0 10.8719 0.6389 0 0 0 0)
M  V30 5 SRU 0 ATOMS=(4 15 16 17 21) CBONDS=(2 17 22) -
M  V30 BRKXYZ=(9 10.8719 0.6389 0 10.8719 -0.3613 0 0 0 0) BRKXYZ=(9 12.7430 0-
M  V30 .6389 0 12.7430 -0.3613 0 0 0 0)
M  V30 6 SRU 0 ATOMS=(4 17 21 22 26) CBONDS=(2 22 32) -
M  V30 BRKXYZ=(9 12.7430 0.6389 0 12.7430 -0.3613 0 0 0 0) BRKXYZ=(9 14.6139 0-
M  V30 .6390 0 14.6139 -0.3612 0 0 0 0)
M  V30 7 SRU 0 ATOMS=(4 3 6 22 26) CBONDS=(2 23 32) -
M  V30 BRKXYZ=(9 3.9438 -1.3612 0 3.9438 1.6389 0 0 0 0) BRKXYZ=(9 14.6139 -1.-
M  V30 3611 0 14.6139 1.6390 0 0 0 0)
M  V30 END SGROUP
M  V30 END CTAB
M  END
>  <BIGSMILES_BRACKET_RECORDS_JSON>
{
  "records": [
    {
      "id": 0,
      "bracket_kind": "backbone",
      "pairing_id": "F3/fragments[0]",
      "group_id": "<1:3",
      "ru_midpoint": [
        17.211906105369657,
        0.13892604124491764
      ],
      "bond_midpoint": [
        16.34585404864695,
        0.13892787614768598
      ],
      "orientation_vector": [
        0.0,
        -1.0
      ],
      "half_bracket_size": 0.5000159997440081,
      "bond": [
        26,
        33
      ],
      "fragment": "F3",
      "backbone": true,
      "suspended_anchor_atom": null,
      "suspended_reason": null,
      "source_label": "F3/fragments[0]",
      "marker_id": "0",
      "side": "left",
      "connection_group": "<1",
      "marker_type_index": 3
    },
    {
      "id": 1,
      "bracket_kind": "backbone",
      "pairing_id": "F3/fragments[0]",
      "group_id": ">1:4",
      "ru_midpoint": [
        17.211906105369657,
        0.13892604124491764
      ],
      "bond_midpoint": [
        18.077946424770122,
        0.13891987627568225
      ],
      "orientation_vector": [
        0.0,
        -1.0
      ],
      "half_bracket_size": 0.5000159997440081,
      "bond": [
        4,
        36
      ],
      "fragment": "F3",
      "backbone": true,
      "suspended_anchor_atom": null,
      "suspended_reason": null,
      "source_label": "F3/fragments[0]",
      "marker_id": "5",
      "side": "right",
      "connection_group": ">1",
      "marker_type_index": 4
    },
    {
      "id": 2,
      "bracket_kind": "backbone",
      "pairing_id": "F2/fragments[0]",
      "group_id": "$a:2",
      "ru_midpoint": [
        15.47983632303935,
        0.13893140560230177
      ],
      "bond_midpoint": [
        14.613871283439689,
        0.1389319056078605
      ],
      "orientation_vector": [
        0.0,
        1.0
      ],
      "half_bracket_size": 0.5000070589092322,
      "bond": [
        21,
        25
      ],
      "fragment": "F2",
      "backbone": true,
      "suspended_anchor_atom": null,
      "suspended_reason": null,
      "source_label": "F2/fragments[0]",
      "marker_id": "0",
      "side": "left",
      "connection_group": "$a",
      "marker_type_index": 2
    },
    {
      "id": 3,
      "bracket_kind": "backbone",
      "pairing_id": "F2/fragments[0]",
      "group_id": "$a:2",
      "ru_midpoint": [
        15.47983632303935,
        0.13893140560230177
      ],
      "bond_midpoint": [
        16.34585404864695,
        0.13892787614768598
      ],
      "orientation_vector": [
        0.0,
        1.0
      ],
      "half_bracket_size": 0.5000070589092322,
      "bond": [
        26,
        33
      ],
      "fragment": "F2",
      "backbone": true,
      "suspended_anchor_atom": null,
      "suspended_reason": null,
      "source_label": "F2/fragments[0]",
      "marker_id": "9",
      "side": "right",
      "connection_group": "$a",
      "marker_type_index": 2
    },
    {
      "id": 4,
      "bracket_kind": "backbone",
      "pairing_id": "F1/fragments[0]",
      "group_id": "$a:2",
      "ru_midpoint": [
        5.242834180275296,
        0.0888889401649482
      ],
      "bond_midpoint": [
        3.9438007831585917,
        0.1388601577999855
      ],
      "orientation_vector": [
        0.0,
        -1.0
      ],
      "half_bracket_size": 0.5001011957426217,
      "bond": [
        2,
        5
      ],
      "fragment": "F1",
      "backbone": true,
      "suspended_anchor_atom": null,
      "suspended_reason": null,
      "source_label": "F1/fragments[0]",
      "marker_id": "0",
      "side": "left",
      "connection_group": "$a",
      "marker_type_index": 2
    },
    {
      "id": 5,
      "bracket_kind": "backbone",
      "pairing_id": "F1/fragments[0]",
      "group_id": "$a:2",
      "ru_midpoint": [
        5.242834180275296,
        0.0888889401649482
      ],
      "bond_midpoint": [
        7.407877895956306,
        0.13887895616648444
      ],
      "orientation_vector": [
        0.0,
        -1.0
      ],
      "half_bracket_size": 0.5001011957426217,
      "bond": [
        9,
        10
      ],
      "fragment": "F1",
      "backbone": true,
      "suspended_anchor_atom": null,
      "suspended_reason": null,
      "source_label": "F1/fragments[0]",
      "marker_id": "6",
      "side": "right",
      "connection_group": "$a",
      "marker_type_index": 2
    },
    {
      "id": 6,
      "bracket_kind": "backbone",
      "pairing_id": "F1/fragments[1]",
      "group_id": "$a:2",
      "ru_midpoint": [
        9.139887959365444,
        0.13882103725279116
      ],
      "bond_midpoint": [
        7.407877895956306,
        0.13887895616648444
      ],
      "orientation_vector": [
        0.0,
        -1.0
      ],
      "half_bracket_size": 0.5001011957426217,
      "bond": [
        9,
        10
      ],
      "fragment": "F1",
      "backbone": true,
      "suspended_anchor_atom": null,
      "suspended_reason": null,
      "source_label": "F1/fragments[1]",
      "marker_id": "0",
      "side": "left",
      "connection_group": "$a",
      "marker_type_index": 2
    },
    {
      "id": 7,
      "bracket_kind": "backbone",
      "pairing_id": "F1/fragments[1]",
      "group_id": "$a:2",
      "ru_midpoint": [
        9.139887959365444,
        0.13882103725279116
      ],
      "bond_midpoint": [
        10.871926481403854,
        0.13882103725279138
      ],
      "orientation_vector": [
        0.0,
        -1.0
      ],
      "half_bracket_size": 0.5001011957426217,
      "bond": [
        14,
        15
      ],
      "fragment": "F1",
      "backbone": true,
      "suspended_anchor_atom": null,
      "suspended_reason": null,
      "source_label": "F1/fragments[1]",
      "marker_id": "6",
      "side": "right",
      "connection_group": "$a",
      "marker_type_index": 2
    },
    {
      "id": 8,
      "bracket_kind": "backbone",
      "pairing_id": "F1/fragments[2]",
      "group_id": "$a:2",
      "ru_midpoint": [
        11.738044595500249,
        0.13877843830285475
      ],
      "bond_midpoint": [
        10.871926481403854,
        0.13882103725279138
      ],
      "orientation_vector": [
        0.0,
        1.0
      ],
      "half_bracket_size": 0.5001011957426217,
      "bond": [
        14,
        15
      ],
      "fragment": "F1",
      "backbone": true,
      "suspended_anchor_atom": null,
      "suspended_reason": null,
      "source_label": "F1/fragments[2]",
      "marker_id": "0",
      "side": "left",
      "connection_group": "$a",
      "marker_type_index": 2
    },
    {
      "id": 9,
      "bracket_kind": "backbone",
      "pairing_id": "F1/fragments[2]",
      "group_id": "$a:2",
      "ru_midpoint": [
        11.738044595500249,
        0.13877843830285475
      ],
      "bond_midpoint": [
        12.743005298738073,
        0.13877843830285463
      ],
      "orientation_vector": [
        0.0,
        1.0
      ],
      "half_bracket_size": 0.5001011957426217,
      "bond": [
        16,
        20
      ],
      "fragment": "F1",
      "backbone": true,
      "suspended_anchor_atom": null,
      "suspended_reason": null,
      "source_label": "F1/fragments[2]",
      "marker_id": "6",
      "side": "right",
      "connection_group": "$a",
      "marker_type_index": 2
    },
    {
      "id": 10,
      "bracket_kind": "backbone",
      "pairing_id": "F1/fragments[3]",
      "group_id": "$a:2",
      "ru_midpoint": [
        14.180898872882414,
        0.22219564950237825
      ],
      "bond_midpoint": [
        12.743005298738073,
        0.13877843830285463
      ],
      "orientation_vector": [
        0.0,
        1.0
      ],
      "half_bracket_size": 0.5001011957426217,
      "bond": [
        16,
        20
      ],
      "fragment": "F1",
      "backbone": true,
      "suspended_anchor_atom": null,
      "suspended_reason": null,
      "source_label": "F1/fragments[3]",
      "marker_id": "0",
      "side": "left",
      "connection_group": "$a",
      "marker_type_index": 2
    },
    {
      "id": 11,
      "bracket_kind": "backbone",
      "pairing_id": "F1/fragments[3]",
      "group_id": "$a:2",
      "ru_midpoint": [
        14.180898872882414,
        0.22219564950237825
      ],
      "bond_midpoint": [
        14.613871283439689,
        0.1389319056078605
      ],
      "orientation_vector": [
        0.0,
        1.0
      ],
      "half_bracket_size": 0.5001011957426217,
      "bond": [
        21,
        25
      ],
      "fragment": "F1",
      "backbone": true,
      "suspended_anchor_atom": null,
      "suspended_reason": null,
      "source_label": "F1/fragments[3]",
      "marker_id": "6",
      "side": "right",
      "connection_group": "$a",
      "marker_type_index": 2
    },
    {
      "id": 12,
      "bracket_kind": "backbone",
      "pairing_id": "F1/connected",
      "group_id": "$overall",
      "ru_midpoint": [
        9.199464896320428,
        0.1388480482106249
      ],
      "bond_midpoint": [
        3.9438007831585917,
        0.1388601577999855
      ],
      "orientation_vector": [
        0.0,
        -1.0
      ],
      "half_bracket_size": 1.5000406575386986,
      "bond": [
        2,
        5
      ],
      "fragment": "F1",
      "backbone": true,
      "suspended_anchor_atom": null,
      "suspended_reason": null,
      "source_label": "F1/connected",
      "marker_id": "connected-overall-left",
      "side": "left",
      "connection_group": "$overall",
      "marker_type_index": null
    },
    {
      "id": 13,
      "bracket_kind": "backbone",
      "pairing_id": "F1/connected",
      "group_id": "$overall",
      "ru_midpoint": [
        9.199464896320428,
        0.1388480482106249
      ],
      "bond_midpoint": [
        14.613871283439689,
        0.1389319056078605
      ],
      "orientation_vector": [
        0.0,
        -1.0
      ],
      "half_bracket_size": 1.5000406575386986,
      "bond": [
        21,
        25
      ],
      "fragment": "F1",
      "backbone": true,
      "suspended_anchor_atom": null,
      "suspended_reason": null,
      "source_label": "F1/connected",
      "marker_id": "connected-overall-right",
      "side": "right",
      "connection_group": "$overall",
      "marker_type_index": null
    }
  ]
}
