
     RDKit          2D

  0  0  0  0  0  0  0  0  0  0999 V3000
M  V30 BEGIN CTAB
M  V30 COUNTS 14 14 2 0 0
M  V30 BEGIN ATOM
M  V30 1 H 3.897258 -0.252459 0.000000 0
M  V30 2 H 8.227307 0.247541 0.000000 0
M  V30 3 C 4.763217 0.247549 0.000000 0
M  V30 4 C 5.629176 -0.252459 0.000000 0
M  V30 5 C 5.629176 -1.252461 0.000000 0
M  V30 6 C 4.762974 -1.752394 0.000000 0
M  V30 7 C 4.763174 -2.752396 0.000000 0
M  V30 8 C 5.628976 -3.252465 0.000000 0
M  V30 9 C 6.495178 -2.752532 0.000000 0
M  V30 10 C 6.494978 -1.752530 0.000000 0
M  V30 11 Si 6.495201 0.247541 0.000000 0 VAL=4
M  V30 12 C 6.495201 -0.752383 0.000000 0
M  V30 13 C 6.495201 1.247566 0.000000 0
M  V30 14 O 7.361254 -0.252475 0.000000 0
M  V30 END ATOM
M  V30 BEGIN BOND
M  V30 1 1 3 4
M  V30 2 1 4 5
M  V30 3 2 5 6
M  V30 4 1 6 7
M  V30 5 2 7 8
M  V30 6 1 8 9
M  V30 7 2 9 10
M  V30 8 1 10 5
M  V30 9 1 1 3
M  V30 10 1 11 12
M  V30 11 1 11 13
M  V30 12 1 11 14
M  V30 13 1 4 11
M  V30 14 1 2 14
M  V30 END BOND
M  V30 BEGIN SGROUP
M  V30 1 SRU 0 ATOMS=(4 2 4 11 14) CBONDS=(2 13 14) -
M  V30 BRKXYZ=(9 6.0622 -0.5025 0 6.0622 0.4976 0 0 0 0) BRKXYZ=(9 7.7943 -0.5-
M  V30 025 0 7.7943 0.4975 0 0 0 0)
M  V30 2 SRU 0 ATOMS=(4 1 3 4 11) CBONDS=(2 9 13) -
M  V30 BRKXYZ=(9 4.3302 0.4976 0 4.3302 -0.5025 0 0 0 0) BRKXYZ=(9 6.0622 0.49-
M  V30 75 0 6.0622 -0.5025 0 0 0 0)
M  V30 END SGROUP
M  V30 END CTAB
M  END
>  <BIGSMILES_BRACKET_RECORDS_JSON>
{
  "records": [
    {
      "id": 0,
      "bracket_kind": "backbone",
      "pairing_id": "F2/fragments[0]",
      "group_id": "<1:3",
      "ru_midpoint": [
        6.9282405706732835,
        -0.0024603688070065815
      ],
      "bond_midpoint": [
        6.062188513950579,
        -0.0024585339042382387
      ],
      "orientation_vector": [
        0.0,
        -1.0
      ],
      "half_bracket_size": 0.5000159997440081,
      "bond": [
        3,
        10
      ],
      "fragment": "F2",
      "backbone": true,
      "suspended_anchor_atom": null,
      "suspended_reason": null,
      "source_label": "F2/fragments[0]",
      "marker_id": "0",
      "side": "left",
      "connection_group": "<1",
      "marker_type_index": 3
    },
    {
      "id": 1,
      "bracket_kind": "backbone",
      "pairing_id": "F2/fragments[0]",
      "group_id": ">1:4",
      "ru_midpoint": [
        6.9282405706732835,
        -0.0024603688070065815
      ],
      "bond_midpoint": [
        7.794280890073751,
        -0.002466533776242383
      ],
      "orientation_vector": [
        0.0,
        -1.0
      ],
      "half_bracket_size": 0.5000159997440081,
      "bond": [
        1,
        13
      ],
      "fragment": "F2",
      "backbone": true,
      "suspended_anchor_atom": null,
      "suspended_reason": null,
      "source_label": "F2/fragments[0]",
      "marker_id": "5",
      "side": "right",
      "connection_group": ">1",
      "marker_type_index": 4
    },
    {
      "id": 2,
      "bracket_kind": "backbone",
      "pairing_id": "F1/fragments[0]",
      "group_id": "$a:2",
      "ru_midpoint": [
        5.196202185922754,
        -0.0024555044551807974
      ],
      "bond_midpoint": [
        4.330237146323093,
        -0.0024550044496222806
      ],
      "orientation_vector": [
        0.0,
        1.0
      ],
      "half_bracket_size": 0.5000070589092322,
      "bond": [
        0,
        2
      ],
      "fragment": "F1",
      "backbone": true,
      "suspended_anchor_atom": null,
      "suspended_reason": null,
      "source_label": "F1/fragments[0]",
      "marker_id": "0",
      "side": "left",
      "connection_group": "$a",
      "marker_type_index": 2
    },
    {
      "id": 3,
      "bracket_kind": "backbone",
      "pairing_id": "F1/fragments[0]",
      "group_id": "$a:2",
      "ru_midpoint": [
        5.196202185922754,
        -0.0024555044551807974
      ],
      "bond_midpoint": [
        6.062188513950579,
        -0.0024585339042382387
      ],
      "orientation_vector": [
        0.0,
        1.0
      ],
      "half_bracket_size": 0.5000070589092322,
      "bond": [
        3,
        10
      ],
      "fragment": "F1",
      "backbone": true,
      "suspended_anchor_atom": null,
      "suspended_reason": null,
      "source_label": "F1/fragments[0]",
      "marker_id": "9",
      "side": "right",
      "connection_group": "$a",
      "marker_type_index": 2
    }
  ]
}
