
     RDKit          2D

  0  0  0  0  0  0  0  0  0  0999 V3000
M  V30 BEGIN CTAB
M  V30 COUNTS 18 19 2 0 0
M  V30 BEGIN ATOM
M  V30 1 H 3.640317 -0.252454 0.000000 0
M  V30 2 H 8.484058 0.247552 0.000000 0
M  V30 3 C 4.506333 0.247649 0.000000 0
M  V30 4 C 5.372348 -0.252454 0.000000 0
M  V30 5 C 5.372348 -1.252380 0.000000 0
M  V30 6 C 4.506272 -1.752306 0.000000 0
M  V30 7 C 4.506100 -2.752332 0.000000 0
M  V30 8 C 5.372002 -3.252431 0.000000 0
M  V30 9 C 6.238078 -2.752505 0.000000 0
M  V30 10 N 6.238251 -1.752479 0.000000 0
M  V30 11 C 6.752139 0.247552 0.000000 0
M  V30 12 C 7.618098 -0.252455 0.000000 0
M  V30 13 C 7.618098 -1.252457 0.000000 0
M  V30 14 C 6.751897 -1.752391 0.000000 0
M  V30 15 C 6.752097 -2.752392 0.000000 0
M  V30 16 N 7.617898 -3.252462 0.000000 0
M  V30 17 C 8.484100 -2.752528 0.000000 0
M  V30 18 C 8.483900 -1.752527 0.000000 0
M  V30 END ATOM
M  V30 BEGIN BOND
M  V30 1 1 3 4
M  V30 2 1 4 5
M  V30 3 2 5 6
M  V30 4 1 6 7
M  V30 5 2 7 8
M  V30 6 1 8 9
M  V30 7 2 9 10
M  V30 8 1 10 5
M  V30 9 1 1 3
M  V30 10 1 11 12
M  V30 11 1 12 13
M  V30 12 2 13 14
M  V30 13 1 14 15
M  V30 14 2 15 16
M  V30 15 1 16 17
M  V30 16 2 17 18
M  V30 17 1 18 13
M  V30 18 1 4 11
M  V30 19 1 2 12
M  V30 END BOND
M  V30 BEGIN SGROUP
M  V30 1 SRU 0 ATOMS=(4 2 4 11 12) CBONDS=(2 18 19) -
M  V30 BRKXYZ=(9 6.0622 0.4976 0 6.0622 -0.5025 0 0 0 0) BRKXYZ=(9 8.0511 0.49-
M  V30 76 0 8.0511 -0.5025 0 0 0 0)
M  V30 2 SRU 0 ATOMS=(4 1 3 4 11) CBONDS=(2 9 18) -
M  V30 BRKXYZ=(9 4.0733 0.4977 0 4.0733 -0.5025 0 0 0 0) BRKXYZ=(9 6.0622 0.49-
M  V30 77 0 6.0622 -0.5026 0 0 0 0)
M  V30 END SGROUP
M  V30 END CTAB
M  END
>  <BIGSMILES_BRACKET_RECORDS_JSON>
{
  "records": [
    {
      "id": 0,
      "bracket_kind": "backbone",
      "pairing_id": "F2/fragments[0]",
      "group_id": "$a:2",
      "ru_midpoint": [
        7.185100225731653,
        -0.0024733390572007075
      ],
      "bond_midpoint": [
        6.062243613412742,
        -0.0024512809591836215
      ],
      "orientation_vector": [
        0.0,
        1.0
      ],
      "half_bracket_size": 0.5000070589092322,
      "bond": [
        3,
        10
      ],
      "fragment": "F2",
      "backbone": true,
      "suspended_anchor_atom": null,
      "suspended_reason": null,
      "source_label": "F2/fragments[0]",
      "marker_id": "0",
      "side": "left",
      "connection_group": "$a",
      "marker_type_index": 2
    },
    {
      "id": 1,
      "bracket_kind": "backbone",
      "pairing_id": "F2/fragments[0]",
      "group_id": "$a:2",
      "ru_midpoint": [
        7.185100225731653,
        -0.0024733390572007075
      ],
      "bond_midpoint": [
        8.05107799759787,
        -0.0024517809647426336
      ],
      "orientation_vector": [
        0.0,
        1.0
      ],
      "half_bracket_size": 0.5000070589092322,
      "bond": [
        1,
        11
      ],
      "fragment": "F2",
      "backbone": true,
      "suspended_anchor_atom": null,
      "suspended_reason": null,
      "source_label": "F2/fragments[0]",
      "marker_id": "9",
      "side": "right",
      "connection_group": "$a",
      "marker_type_index": 2
    },
    {
      "id": 2,
      "bracket_kind": "backbone",
      "pairing_id": "F1/fragments[0]",
      "group_id": "$a:2",
      "ru_midpoint": [
        4.939319183746044,
        -0.002409176872107399
      ],
      "bond_midpoint": [
        4.073324866792769,
        -0.0024026907854669544
      ],
      "orientation_vector": [
        0.0,
        1.0
      ],
      "half_bracket_size": 0.500103239245547,
      "bond": [
        0,
        2
      ],
      "fragment": "F1",
      "backbone": true,
      "suspended_anchor_atom": null,
      "suspended_reason": null,
      "source_label": "F1/fragments[0]",
      "marker_id": "0",
      "side": "left",
      "connection_group": "$a",
      "marker_type_index": 2
    },
    {
      "id": 3,
      "bracket_kind": "backbone",
      "pairing_id": "F1/fragments[0]",
      "group_id": "$a:2",
      "ru_midpoint": [
        4.939319183746044,
        -0.002409176872107399
      ],
      "bond_midpoint": [
        6.062243613412742,
        -0.0024512809591836215
      ],
      "orientation_vector": [
        0.0,
        1.0
      ],
      "half_bracket_size": 0.500103239245547,
      "bond": [
        3,
        10
      ],
      "fragment": "F1",
      "backbone": true,
      "suspended_anchor_atom": null,
      "suspended_reason": null,
      "source_label": "F1/fragments[0]",
      "marker_id": "9",
      "side": "right",
      "connection_group": "$a",
      "marker_type_index": 2
    }
  ]
}
