
     RDKit          2D

  0  0  0  0  0  0  0  0  0  0999 V3000
M  V30 BEGIN CTAB
M  V30 COUNTS 22 21 5 0 0
M  V30 BEGIN ATOM
M  V30 1 H 0.727283 0.209099 0.000000 0
M  V30 2 H 11.397066 0.209025 0.000000 0
M  V30 3 C 1.593223 -0.290913 0.000000 0
M  V30 4 C 1.593223 -1.290838 0.000000 0
M  V30 5 C 2.459163 0.209099 0.000000 0
M  V30 6 O 2.459165 1.209100 0.000000 0
M  V30 7 O 3.325094 -0.290913 0.000000 0
M  V30 8 C 4.191155 0.209025 0.000000 0
M  V30 9 C 5.057160 -0.290875 0.000000 0
M  V30 10 C 5.923156 0.209025 0.000000 0
M  V30 11 C 5.923156 1.209025 0.000000 0
M  V30 12 C 6.789160 -0.290875 0.000000 0
M  V30 13 C 7.655243 0.209025 0.000000 0
M  V30 14 C 8.521240 -0.290875 0.000000 0
M  V30 15 C 8.521240 -1.290807 0.000000 0
M  V30 16 C 7.655353 -1.790897 0.000000 0
M  V30 17 C 9.387299 -1.790749 0.000000 0
M  V30 18 C 9.665057 0.209025 0.000000 0
M  V30 19 C 10.531061 -0.290875 0.000000 0
M  V30 20 C 10.531061 0.709050 0.000000 0
M  V30 21 C 10.531061 -1.290800 0.000000 0
M  V30 22 C 9.665169 -1.790894 0.000000 0
M  V30 END ATOM
M  V30 BEGIN BOND
M  V30 1 1 3 4
M  V30 2 1 3 5
M  V30 3 2 5 6
M  V30 4 1 5 7
M  V30 5 1 1 3
M  V30 6 1 8 9
M  V30 7 1 9 10
M  V30 8 1 10 11
M  V30 9 1 10 12
M  V30 10 1 13 14
M  V30 11 1 14 15
M  V30 12 1 15 16
M  V30 13 1 15 17
M  V30 14 1 12 13
M  V30 15 1 18 19
M  V30 16 1 19 20
M  V30 17 1 19 21
M  V30 18 1 21 22
M  V30 19 1 14 18
M  V30 20 1 7 8
M  V30 21 1 2 19
M  V30 END BOND
M  V30 BEGIN SGROUP
M  V30 1 SRU 0 ATOMS=(4 7 8 12 13) CBONDS=(2 14 20) -
M  V30 BRKXYZ=(9 3.7581 -0.5408 0 3.7581 0.4590 0 0 0 0) BRKXYZ=(9 7.2222 -0.5-
M  V30 408 0 7.2222 0.4590 0 0 0 0)
M  V30 2 SRU 0 ATOMS=(4 12 13 14 18) CBONDS=(2 14 19) -
M  V30 BRKXYZ=(9 7.2222 0.4590 0 7.2222 -0.5408 0 0 0 0) BRKXYZ=(9 9.0931 0.45-
M  V30 90 0 9.0931 -0.5408 0 0 0 0)
M  V30 3 SRU 0 ATOMS=(4 2 14 18 19) CBONDS=(2 19 21) -
M  V30 BRKXYZ=(9 9.0931 0.4590 0 9.0931 -0.5408 0 0 0 0) BRKXYZ=(9 10.9641 0.4-
M  V30 590 0 10.9641 -0.5408 0 0 0 0)
M  V30 4 SRU 0 ATOMS=(4 2 7 8 19) CBONDS=(2 20 21) -
M  V30 BRKXYZ=(9 3.7581 -3.0409 0 3.7581 2.9590 0 0 0 0) BRKXYZ=(9 10.9641 -3.-
M  V30 0408 0 10.9641 2.9590 0 0 0 0)
M  V30 5 SRU 0 ATOMS=(4 1 3 7 8) CBONDS=(2 5 20) -
M  V30 BRKXYZ=(9 1.1603 0.4591 0 1.1603 -0.5409 0 0 0 0) BRKXYZ=(9 3.7581 0.45-
M  V30 91 0 3.7581 -0.5410 0 0 0 0)
M  V30 END SGROUP
M  V30 END CTAB
M  END
>  <BIGSMILES_BRACKET_RECORDS_JSON>
{
  "records": [
    {
      "id": 0,
      "bracket_kind": "backbone",
      "pairing_id": "F2/fragments[0]",
      "group_id": "$a:2",
      "ru_midpoint": [
        5.057158141222355,
        -0.09091517281150115
      ],
      "bond_midpoint": [
        3.75812474410565,
        -0.040943955176464014
      ],
      "orientation_vector": [
        0.0,
        -1.0
      ],
      "half_bracket_size": 0.4999001600153621,
      "bond": [
        6,
        7
      ],
      "fragment": "F2",
      "backbone": true,
      "suspended_anchor_atom": null,
      "suspended_reason": null,
      "source_label": "F2/fragments[0]",
      "marker_id": "0",
      "side": "left",
      "connection_group": "$a",
      "marker_type_index": 2
    },
    {
      "id": 1,
      "bracket_kind": "backbone",
      "pairing_id": "F2/fragments[0]",
      "group_id": "$a:2",
      "ru_midpoint": [
        5.057158141222355,
        -0.09091517281150115
      ],
      "bond_midpoint": [
        7.222201856903364,
        -0.04092515680996503
      ],
      "orientation_vector": [
        0.0,
        -1.0
      ],
      "half_bracket_size": 0.4999001600153621,
      "bond": [
        11,
        12
      ],
      "fragment": "F2",
      "backbone": true,
      "suspended_anchor_atom": null,
      "suspended_reason": null,
      "source_label": "F2/fragments[0]",
      "marker_id": "6",
      "side": "right",
      "connection_group": "$a",
      "marker_type_index": 2
    },
    {
      "id": 2,
      "bracket_kind": "backbone",
      "pairing_id": "F2/fragments[1]",
      "group_id": "$a:2",
      "ru_midpoint": [
        8.08824147962952,
        -0.04092515680996499
      ],
      "bond_midpoint": [
        7.222201856903364,
        -0.04092515680996503
      ],
      "orientation_vector": [
        0.0,
        1.0
      ],
      "half_bracket_size": 0.4999001600153621,
      "bond": [
        11,
        12
      ],
      "fragment": "F2",
      "backbone": true,
      "suspended_anchor_atom": null,
      "suspended_reason": null,
      "source_label": "F2/fragments[1]",
      "marker_id": "0",
      "side": "left",
      "connection_group": "$a",
      "marker_type_index": 2
    },
    {
      "id": 3,
      "bracket_kind": "backbone",
      "pairing_id": "F2/fragments[1]",
      "group_id": "$a:2",
      "ru_midpoint": [
        8.08824147962952,
        -0.04092515680996499
      ],
      "bond_midpoint": [
        9.093148289855677,
        -0.04092515680996495
      ],
      "orientation_vector": [
        0.0,
        1.0
      ],
      "half_bracket_size": 0.4999001600153621,
      "bond": [
        13,
        17
      ],
      "fragment": "F2",
      "backbone": true,
      "suspended_anchor_atom": null,
      "suspended_reason": null,
      "source_label": "F2/fragments[1]",
      "marker_id": "6",
      "side": "right",
      "connection_group": "$a",
      "marker_type_index": 2
    },
    {
      "id": 4,
      "bracket_kind": "backbone",
      "pairing_id": "F2/fragments[2]",
      "group_id": "$a:2",
      "ru_midpoint": [
        10.531055941974321,
        0.04239953454458632
      ],
      "bond_midpoint": [
        9.093148289855677,
        -0.04092515680996495
      ],
      "orientation_vector": [
        0.0,
        1.0
      ],
      "half_bracket_size": 0.4999001600153621,
      "bond": [
        13,
        17
      ],
      "fragment": "F2",
      "backbone": true,
      "suspended_anchor_atom": null,
      "suspended_reason": null,
      "source_label": "F2/fragments[2]",
      "marker_id": "0",
      "side": "left",
      "connection_group": "$a",
      "marker_type_index": 2
    },
    {
      "id": 5,
      "bracket_kind": "backbone",
      "pairing_id": "F2/fragments[2]",
      "group_id": "$a:2",
      "ru_midpoint": [
        10.531055941974321,
        0.04239953454458632
      ],
      "bond_midpoint": [
        10.964063535413995,
        -0.04092515680996486
      ],
      "orientation_vector": [
        0.0,
        1.0
      ],
      "half_bracket_size": 0.4999001600153621,
      "bond": [
        1,
        18
      ],
      "fragment": "F2",
      "backbone": true,
      "suspended_anchor_atom": null,
      "suspended_reason": null,
      "source_label": "F2/fragments[2]",
      "marker_id": "6",
      "side": "right",
      "connection_group": "$a",
      "marker_type_index": 2
    },
    {
      "id": 6,
      "bracket_kind": "backbone",
      "pairing_id": "F2/connected",
      "group_id": "$overall",
      "ru_midpoint": [
        7.305513379826652,
        -0.04091715879130732
      ],
      "bond_midpoint": [
        3.75812474410565,
        -0.040943955176464014
      ],
      "orientation_vector": [
        0.0,
        -1.0
      ],
      "half_bracket_size": 2.9999227350143496,
      "bond": [
        6,
        7
      ],
      "fragment": "F2",
      "backbone": true,
      "suspended_anchor_atom": null,
      "suspended_reason": null,
      "source_label": "F2/connected",
      "marker_id": "connected-overall-left",
      "side": "left",
      "connection_group": "$overall",
      "marker_type_index": null
    },
    {
      "id": 7,
      "bracket_kind": "backbone",
      "pairing_id": "F2/connected",
      "group_id": "$overall",
      "ru_midpoint": [
        7.305513379826652,
        -0.04091715879130732
      ],
      "bond_midpoint": [
        10.964063535413995,
        -0.04092515680996486
      ],
      "orientation_vector": [
        0.0,
        -1.0
      ],
      "half_bracket_size": 2.9999227350143496,
      "bond": [
        1,
        18
      ],
      "fragment": "F2",
      "backbone": true,
      "suspended_anchor_atom": null,
      "suspended_reason": null,
      "source_label": "F2/connected",
      "marker_id": "connected-overall-right",
      "side": "right",
      "connection_group": "$overall",
      "marker_type_index": null
    },
    {
      "id": 8,
      "bracket_kind": "backbone",
      "pairing_id": "F1/fragments[0]",
      "group_id": "<1:3",
      "ru_midpoint": [
        2.459182944976291,
        0.009094643422644058
      ],
      "bond_midpoint": [
        1.1602532276264181,
        -0.040906669407849205
      ],
      "orientation_vector": [
        0.0,
        1.0
      ],
      "half_bracket_size": 0.5000123282855897,
      "bond": [
        0,
        2
      ],
      "fragment": "F1",
      "backbone": true,
      "suspended_anchor_atom": null,
      "suspended_reason": null,
      "source_label": "F1/fragments[0]",
      "marker_id": "0",
      "side": "left",
      "connection_group": "<1",
      "marker_type_index": 3
    },
    {
      "id": 9,
      "bracket_kind": "backbone",
      "pairing_id": "F1/fragments[0]",
      "group_id": ">1:4",
      "ru_midpoint": [
        2.459182944976291,
        0.009094643422644058
      ],
      "bond_midpoint": [
        3.75812474410565,
        -0.040943955176464014
      ],
      "orientation_vector": [
        0.0,
        1.0
      ],
      "half_bracket_size": 0.5000123282855897,
      "bond": [
        6,
        7
      ],
      "fragment": "F1",
      "backbone": true,
      "suspended_anchor_atom": null,
      "suspended_reason": null,
      "source_label": "F1/fragments[0]",
      "marker_id": "6",
      "side": "right",
      "connection_group": ">1",
      "marker_type_index": 4
    }
  ]
}
