
     RDKit          2D

  0  0  0  0  0  0  0  0  0  0999 V3000
M  V30 BEGIN CTAB
M  V30 COUNTS 18 19 2 0 0
M  V30 BEGIN ATOM
M  V30 1 H 3.758273 -0.252492 0.000000 0
M  V30 2 H 8.366320 0.247598 0.000000 0
M  V30 3 C 4.624232 0.247515 0.000000 0
M  V30 4 C 5.490191 -0.252492 0.000000 0
M  V30 5 C 5.490191 -1.252494 0.000000 0
M  V30 6 C 4.623989 -1.752428 0.000000 0
M  V30 7 C 4.624189 -2.752429 0.000000 0
M  V30 8 C 5.489991 -3.252499 0.000000 0
M  V30 9 C 6.356193 -2.752565 0.000000 0
M  V30 10 C 6.355993 -1.752564 0.000000 0
M  V30 11 C 6.634290 0.247598 0.000000 0
M  V30 12 C 7.500305 -0.252505 0.000000 0
M  V30 13 C 7.500305 -1.252430 0.000000 0
M  V30 14 C 6.634229 -1.752357 0.000000 0
M  V30 15 C 6.634057 -2.752383 0.000000 0
M  V30 16 C 7.499959 -3.252482 0.000000 0
M  V30 17 C 8.366035 -2.752556 0.000000 0
M  V30 18 N 8.366208 -1.752530 0.000000 0
M  V30 END ATOM
M  V30 BEGIN BOND
M  V30 1 1 3 4
M  V30 2 1 4 5
M  V30 3 2 5 6
M  V30 4 1 6 7
M  V30 5 2 7 8
M  V30 6 1 8 9
M  V30 7 2 9 10
M  V30 8 1 10 5
M  V30 9 1 1 3
M  V30 10 1 11 12
M  V30 11 1 12 13
M  V30 12 2 13 14
M  V30 13 1 14 15
M  V30 14 2 15 16
M  V30 15 1 16 17
M  V30 16 2 17 18
M  V30 17 1 18 13
M  V30 18 1 4 11
M  V30 19 1 2 12
M  V30 END BOND
M  V30 BEGIN SGROUP
M  V30 1 SRU 0 ATOMS=(4 2 4 11 12) CBONDS=(2 18 19) -
M  V30 BRKXYZ=(9 6.0622 0.4977 0 6.0622 -0.5026 0 0 0 0) BRKXYZ=(9 7.9333 0.49-
M  V30 76 0 7.9333 -0.5026 0 0 0 0)
M  V30 2 SRU 0 ATOMS=(4 1 3 4 11) CBONDS=(2 9 18) -
M  V30 BRKXYZ=(9 4.1913 0.4975 0 4.1913 -0.5025 0 0 0 0) BRKXYZ=(9 6.0622 0.49-
M  V30 76 0 6.0622 -0.5025 0 0 0 0)
M  V30 END SGROUP
M  V30 END CTAB
M  END
>  <BIGSMILES_BRACKET_RECORDS_JSON>
{
  "records": [
    {
      "id": 0,
      "bracket_kind": "backbone",
      "pairing_id": "F2/fragments[0]",
      "group_id": "$a:2",
      "ru_midpoint": [
        7.067321117175752,
        -0.0024518939917472227
      ],
      "bond_midpoint": [
        6.0622404550972,
        -0.002447028223852593
      ],
      "orientation_vector": [
        0.0,
        1.0
      ],
      "half_bracket_size": 0.500103239245547,
      "bond": [
        3,
        10
      ],
      "fragment": "F2",
      "backbone": true,
      "suspended_anchor_atom": null,
      "suspended_reason": null,
      "source_label": "F2/fragments[0]",
      "marker_id": "0",
      "side": "left",
      "connection_group": "$a",
      "marker_type_index": 2
    },
    {
      "id": 1,
      "bracket_kind": "backbone",
      "pairing_id": "F2/fragments[0]",
      "group_id": "$a:2",
      "ru_midpoint": [
        7.067321117175752,
        -0.0024518939917472227
      ],
      "bond_midpoint": [
        7.933312624163886,
        -0.002453514310492899
      ],
      "orientation_vector": [
        0.0,
        1.0
      ],
      "half_bracket_size": 0.500103239245547,
      "bond": [
        1,
        11
      ],
      "fragment": "F2",
      "backbone": true,
      "suspended_anchor_atom": null,
      "suspended_reason": null,
      "source_label": "F2/fragments[0]",
      "marker_id": "9",
      "side": "right",
      "connection_group": "$a",
      "marker_type_index": 2
    },
    {
      "id": 2,
      "bracket_kind": "backbone",
      "pairing_id": "F1/fragments[0]",
      "group_id": "$a:2",
      "ru_midpoint": [
        5.057243156535311,
        -0.002489132310928621
      ],
      "bond_midpoint": [
        4.191252648465362,
        -0.0024886323053698867
      ],
      "orientation_vector": [
        0.0,
        1.0
      ],
      "half_bracket_size": 0.5000070589092322,
      "bond": [
        0,
        2
      ],
      "fragment": "F1",
      "backbone": true,
      "suspended_anchor_atom": null,
      "suspended_reason": null,
      "source_label": "F1/fragments[0]",
      "marker_id": "0",
      "side": "left",
      "connection_group": "$a",
      "marker_type_index": 2
    },
    {
      "id": 3,
      "bracket_kind": "backbone",
      "pairing_id": "F1/fragments[0]",
      "group_id": "$a:2",
      "ru_midpoint": [
        5.057243156535311,
        -0.002489132310928621
      ],
      "bond_midpoint": [
        6.0622404550972,
        -0.002447028223852593
      ],
      "orientation_vector": [
        0.0,
        1.0
      ],
      "half_bracket_size": 0.5000070589092322,
      "bond": [
        3,
        10
      ],
      "fragment": "F1",
      "backbone": true,
      "suspended_anchor_atom": null,
      "suspended_reason": null,
      "source_label": "F1/fragments[0]",
      "marker_id": "9",
      "side": "right",
      "connection_group": "$a",
      "marker_type_index": 2
    }
  ]
}
