
     RDKit          2D

  0  0  0  0  0  0  0  0  0  0999 V3000
M  V30 BEGIN CTAB
M  V30 COUNTS 35 37 2 0 0
M  V30 BEGIN ATOM
M  V30 1 C -0.498000 1.413209 0.000000 0
M  V30 2 C 0.368020 0.913212 0.000000 0
M  V30 3 C 0.368020 1.913181 0.000000 0
M  V30 4 C 0.368020 -0.086782 0.000000 0
M  V30 5 C 1.234012 1.413209 0.000000 0
M  V30 6 H 11.006487 0.413195 0.000000 0
M  V30 7 C 2.100038 0.913209 0.000000 0
M  V30 8 C 3.051094 0.604192 0.000000 0
M  V30 9 C 3.360112 -0.346868 0.000000 0
M  V30 10 C 4.360116 -0.346868 0.000000 0
M  V30 11 C 4.669134 0.604192 0.000000 0
M  V30 12 C 3.860114 1.191980 0.000000 0
M  V30 13 C 5.620191 0.913209 0.000000 0
M  V30 14 C 6.620191 0.913209 0.000000 0
M  V30 15 C 7.571225 0.604125 0.000000 0
M  V30 16 C 8.380393 1.191856 0.000000 0
M  V30 17 C 9.189413 0.604152 0.000000 0
M  V30 18 C 8.880381 -0.346903 0.000000 0
M  V30 19 C 7.880216 -0.346876 0.000000 0
M  V30 20 C 7.257001 -1.128571 0.000000 0
M  V30 21 N 7.479389 -2.103626 0.000000 0
M  V30 22 C 6.697543 -2.727093 0.000000 0
M  V30 23 C 6.074076 -1.945246 0.000000 0
M  V30 24 C 5.708743 -2.876128 0.000000 0
M  V30 25 C 6.846579 -3.715893 0.000000 0
M  V30 26 Sn 8.380251 -2.537344 0.000000 0 VAL=4
M  V30 27 Cl 8.380251 -3.537341 0.000000 0
M  V30 28 Cl 8.380244 -3.537257 0.000000 0
M  V30 29 N 9.281275 -2.103562 0.000000 0
M  V30 30 C 10.063090 -2.727029 0.000000 0
M  V30 31 C 10.686558 -1.945214 0.000000 0
M  V30 32 C 11.051889 -2.876055 0.000000 0
M  V30 33 C 9.914065 -3.715828 0.000000 0
M  V30 34 C 9.503650 -1.128686 0.000000 0
M  V30 35 C 10.140462 0.913195 0.000000 0
M  V30 END ATOM
M  V30 BEGIN BOND
M  V30 1 1 1 2
M  V30 2 1 2 3
M  V30 3 1 2 4
M  V30 4 1 7 8
M  V30 5 1 8 9
M  V30 6 1 9 10
M  V30 7 1 10 11
M  V30 8 1 11 12
M  V30 9 1 11 13
M  V30 10 1 12 8
M  V30 11 2 5 7 CFG=2
M  V30 12 1 14 15
M  V30 13 1 15 16
M  V30 14 1 16 17
M  V30 15 1 17 18
M  V30 16 1 18 19
M  V30 17 1 19 20
M  V30 18 1 20 21
M  V30 19 1 21 22
M  V30 20 1 22 23
M  V30 21 1 22 24
M  V30 22 1 22 25
M  V30 23 1 21 26
M  V30 24 1 26 27
M  V30 25 1 26 28
M  V30 26 1 26 29
M  V30 27 1 29 30
M  V30 28 1 30 31
M  V30 29 1 30 32
M  V30 30 1 30 33
M  V30 31 1 29 34
M  V30 32 1 17 35
M  V30 33 1 19 15
M  V30 34 1 34 18
M  V30 35 2 13 14 CFG=2
M  V30 36 2 6 35
M  V30 37 1 2 5
M  V30 END BOND
M  V30 BEGIN SGROUP
M  V30 1 SRU 0 ATOMS=(4 6 13 14 35) CBONDS=(2 35 36) -
M  V30 BRKXYZ=(9 6.1202 4.6424 0 6.1202 -2.8160 0 0 0 0) BRKXYZ=(9 10.5735 4.3-
M  V30 924 0 10.5735 -3.0660 0 0 0 0)
M  V30 2 SRU 0 ATOMS=(4 5 7 13 14) CBONDS=(2 11 35) -
M  V30 BRKXYZ=(9 1.6670 2.7021 0 1.6670 -0.3756 0 0 0 0) BRKXYZ=(9 6.1202 2.45-
M  V30 21 0 6.1202 -0.6256 0 0 0 0)
M  V30 END SGROUP
M  V30 END CTAB
M  END
>  <BIGSMILES_BRACKET_RECORDS_JSON>
{
  "records": [
    {
      "id": 0,
      "bracket_kind": "backbone",
      "pairing_id": "F3/fragments[0]",
      "group_id": "$a:2",
      "ru_midpoint": [
        8.380311930035495,
        -0.331615325377443
      ],
      "bond_midpoint": [
        6.120190629657062,
        0.9132091633670727
      ],
      "orientation_vector": [
        0.0,
        1.0
      ],
      "half_bracket_size": 3.729199251846291,
      "bond": [
        12,
        13
      ],
      "fragment": "F3",
      "backbone": true,
      "suspended_anchor_atom": null,
      "suspended_reason": null,
      "source_label": "F3/fragments[0]",
      "marker_id": "0",
      "side": "left",
      "connection_group": "$a",
      "marker_type_index": 2
    },
    {
      "id": 1,
      "bracket_kind": "backbone",
      "pairing_id": "F3/fragments[0]",
      "group_id": "$a:2",
      "ru_midpoint": [
        8.380311930035495,
        -0.331615325377443
      ],
      "bond_midpoint": [
        10.573474313425184,
        0.6631946027524809
      ],
      "orientation_vector": [
        0.0,
        1.0
      ],
      "half_bracket_size": 3.729199251846291,
      "bond": [
        5,
        34
      ],
      "fragment": "F3",
      "backbone": true,
      "suspended_anchor_atom": null,
      "suspended_reason": null,
      "source_label": "F3/fragments[0]",
      "marker_id": "23",
      "side": "right",
      "connection_group": "$a",
      "marker_type_index": 2
    },
    {
      "id": 2,
      "bracket_kind": "backbone",
      "pairing_id": "F2/fragments[0]",
      "group_id": "$a:2",
      "ru_midpoint": [
        3.8601285974566713,
        0.48440041068347295
      ],
      "bond_midpoint": [
        1.6670249302497187,
        1.1632091633670725
      ],
      "orientation_vector": [
        0.0,
        1.0
      ],
      "half_bracket_size": 1.5388474522677276,
      "bond": [
        4,
        6
      ],
      "fragment": "F2",
      "backbone": true,
      "suspended_anchor_atom": null,
      "suspended_reason": null,
      "source_label": "F2/fragments[0]",
      "marker_id": "0",
      "side": "left",
      "connection_group": "$a",
      "marker_type_index": 2
    },
    {
      "id": 3,
      "bracket_kind": "backbone",
      "pairing_id": "F2/fragments[0]",
      "group_id": "$a:2",
      "ru_midpoint": [
        3.8601285974566713,
        0.48440041068347295
      ],
      "bond_midpoint": [
        6.120190629657062,
        0.9132091633670727
      ],
      "orientation_vector": [
        0.0,
        1.0
      ],
      "half_bracket_size": 1.5388474522677276,
      "bond": [
        12,
        13
      ],
      "fragment": "F2",
      "backbone": true,
      "suspended_anchor_atom": null,
      "suspended_reason": null,
      "source_label": "F2/fragments[0]",
      "marker_id": "8",
      "side": "right",
      "connection_group": "$a",
      "marker_type_index": 2
    }
  ]
}
