
     RDKit          2D

  0  0  0  0  0  0  0  0  0  0999 V3000
M  V30 BEGIN CTAB
M  V30 COUNTS 25 24 7 0 0
M  V30 BEGIN ATOM
M  V30 1 H -0.571838 0.247778 0.000000 0
M  V30 2 H 12.696230 0.747716 0.000000 0
M  V30 3 C 0.294167 0.747679 0.000000 0
M  V30 4 C 1.160171 0.247778 0.000000 0
M  V30 5 C 2.026167 0.747679 0.000000 0
M  V30 6 C 2.026167 1.747679 0.000000 0
M  V30 7 C 2.892171 0.247778 0.000000 0
M  V30 8 C 3.758254 0.747679 0.000000 0
M  V30 9 C 4.624251 0.247778 0.000000 0
M  V30 10 C 4.624251 -0.752153 0.000000 0
M  V30 11 C 3.758364 -1.252244 0.000000 0
M  V30 12 C 5.490310 -1.252095 0.000000 0
M  V30 13 C 5.768068 0.747679 0.000000 0
M  V30 14 C 6.634072 0.247778 0.000000 0
M  V30 15 C 6.634072 1.247703 0.000000 0
M  V30 16 C 6.634072 -0.752146 0.000000 0
M  V30 17 C 5.768180 -1.252240 0.000000 0
M  V30 18 C 7.500134 0.747716 0.000000 0
M  V30 19 C 8.366138 0.247816 0.000000 0
M  V30 20 C 8.366138 -0.752209 0.000000 0
M  V30 21 C 7.499986 -1.252053 0.000000 0
M  V30 22 C 9.232221 0.747716 0.000000 0
M  V30 23 C 10.098226 0.247816 0.000000 0
M  V30 24 C 10.964222 0.747716 0.000000 0
M  V30 25 C 11.830226 0.247816 0.000000 0
M  V30 END ATOM
M  V30 BEGIN BOND
M  V30 1 1 3 4
M  V30 2 1 4 5
M  V30 3 1 5 6
M  V30 4 1 5 7
M  V30 5 1 8 9
M  V30 6 1 9 10
M  V30 7 1 10 11
M  V30 8 1 10 12
M  V30 9 1 7 8
M  V30 10 1 13 14
M  V30 11 1 14 15
M  V30 12 1 14 16
M  V30 13 1 16 17
M  V30 14 1 9 13
M  V30 15 1 1 3
M  V30 16 1 18 19
M  V30 17 1 19 20
M  V30 18 1 20 21
M  V30 19 1 22 23
M  V30 20 1 23 24
M  V30 21 1 24 25
M  V30 22 1 19 22
M  V30 23 1 14 18
M  V30 24 1 2 25
M  V30 END BOND
M  V30 BEGIN SGROUP
M  V30 1 SRU 0 ATOMS=(4 14 18 19 22) CBONDS=(2 22 23) -
M  V30 BRKXYZ=(9 7.0671 0.9976 0 7.0671 -0.0022 0 0 0 0) BRKXYZ=(9 8.7992 0.99-
M  V30 77 0 8.7992 -0.0021 0 0 0 0)
M  V30 2 SRU 0 ATOMS=(4 2 19 22 25) CBONDS=(2 22 24) -
M  V30 BRKXYZ=(9 8.7992 0.9977 0 8.7992 -0.0021 0 0 0 0) BRKXYZ=(9 12.2632 0.9-
M  V30 977 0 12.2632 -0.0021 0 0 0 0)
M  V30 3 SRU 0 ATOMS=(4 2 14 18 25) CBONDS=(2 23 24) -
M  V30 BRKXYZ=(9 7.0671 2.4975 0 7.0671 -1.5020 0 0 0 0) BRKXYZ=(9 12.2632 2.4-
M  V30 975 0 12.2632 -1.5020 0 0 0 0)
M  V30 4 SRU 0 ATOMS=(4 1 3 7 8) CBONDS=(2 9 15) -
M  V30 BRKXYZ=(9 -0.1388 -0.0022 0 -0.1388 0.9976 0 0 0 0) BRKXYZ=(9 3.3252 -0-
M  V30 .0022 0 3.3252 0.9976 0 0 0 0)
M  V30 5 SRU 0 ATOMS=(4 7 8 9 13) CBONDS=(2 9 14) -
M  V30 BRKXYZ=(9 3.3252 0.9976 0 3.3252 -0.0022 0 0 0 0) BRKXYZ=(9 5.1962 0.99-
M  V30 76 0 5.1962 -0.0022 0 0 0 0)
M  V30 6 SRU 0 ATOMS=(4 9 13 14 18) CBONDS=(2 14 23) -
M  V30 BRKXYZ=(9 5.1962 0.9976 0 5.1962 -0.0022 0 0 0 0) BRKXYZ=(9 7.0671 0.99-
M  V30 76 0 7.0671 -0.0022 0 0 0 0)
M  V30 7 SRU 0 ATOMS=(4 1 3 14 18) CBONDS=(2 15 23) -
M  V30 BRKXYZ=(9 -0.1388 -2.5022 0 -0.1388 3.4977 0 0 0 0) BRKXYZ=(9 7.0671 -2-
M  V30 .5022 0 7.0671 3.4977 0 0 0 0)
M  V30 END SGROUP
M  V30 END CTAB
M  END
>  <BIGSMILES_BRACKET_RECORDS_JSON>
{
  "records": [
    {
      "id": 0,
      "bracket_kind": "backbone",
      "pairing_id": "F2/fragments[0]",
      "group_id": "$a:2",
      "ru_midpoint": [
        7.933157782828005,
        0.4977660759796583
      ],
      "bond_midpoint": [
        7.067103134403773,
        0.4977472776131592
      ],
      "orientation_vector": [
        0.0,
        1.0
      ],
      "half_bracket_size": 0.49990016001536275,
      "bond": [
        13,
        17
      ],
      "fragment": "F2",
      "backbone": true,
      "suspended_anchor_atom": null,
      "suspended_reason": null,
      "source_label": "F2/fragments[0]",
      "marker_id": "0",
      "side": "left",
      "connection_group": "$a",
      "marker_type_index": 2
    },
    {
      "id": 1,
      "bracket_kind": "backbone",
      "pairing_id": "F2/fragments[0]",
      "group_id": "$a:2",
      "ru_midpoint": [
        7.933157782828005,
        0.4977660759796583
      ],
      "bond_midpoint": [
        8.79917968138172,
        0.4977660759796584
      ],
      "orientation_vector": [
        0.0,
        1.0
      ],
      "half_bracket_size": 0.49990016001536275,
      "bond": [
        18,
        21
      ],
      "fragment": "F2",
      "backbone": true,
      "suspended_anchor_atom": null,
      "suspended_reason": null,
      "source_label": "F2/fragments[0]",
      "marker_id": "5",
      "side": "right",
      "connection_group": "$a",
      "marker_type_index": 2
    },
    {
      "id": 2,
      "bracket_kind": "backbone",
      "pairing_id": "F2/fragments[1]",
      "group_id": "$a:2",
      "ru_midpoint": [
        10.531195174309275,
        0.4977472776131593
      ],
      "bond_midpoint": [
        8.79917968138172,
        0.4977660759796584
      ],
      "orientation_vector": [
        0.0,
        1.0
      ],
      "half_bracket_size": 0.49990016001536275,
      "bond": [
        18,
        21
      ],
      "fragment": "F2",
      "backbone": true,
      "suspended_anchor_atom": null,
      "suspended_reason": null,
      "source_label": "F2/fragments[1]",
      "marker_id": "0",
      "side": "left",
      "connection_group": "$a",
      "marker_type_index": 2
    },
    {
      "id": 3,
      "bracket_kind": "backbone",
      "pairing_id": "F2/fragments[1]",
      "group_id": "$a:2",
      "ru_midpoint": [
        10.531195174309275,
        0.4977472776131593
      ],
      "bond_midpoint": [
        12.263228305259808,
        0.4977660759796587
      ],
      "orientation_vector": [
        0.0,
        1.0
      ],
      "half_bracket_size": 0.49990016001536275,
      "bond": [
        1,
        24
      ],
      "fragment": "F2",
      "backbone": true,
      "suspended_anchor_atom": null,
      "suspended_reason": null,
      "source_label": "F2/fragments[1]",
      "marker_id": "5",
      "side": "right",
      "connection_group": "$a",
      "marker_type_index": 2
    },
    {
      "id": 4,
      "bracket_kind": "backbone",
      "pairing_id": "F2/connected",
      "group_id": "$overall",
      "ru_midpoint": [
        9.66516232937883,
        0.4977472776131593
      ],
      "bond_midpoint": [
        7.067103134403773,
        0.4977472776131592
      ],
      "orientation_vector": [
        0.0,
        1.0
      ],
      "half_bracket_size": 1.9997688137103982,
      "bond": [
        13,
        17
      ],
      "fragment": "F2",
      "backbone": true,
      "suspended_anchor_atom": null,
      "suspended_reason": null,
      "source_label": "F2/connected",
      "marker_id": "connected-overall-left",
      "side": "left",
      "connection_group": "$overall",
      "marker_type_index": null
    },
    {
      "id": 5,
      "bracket_kind": "backbone",
      "pairing_id": "F2/connected",
      "group_id": "$overall",
      "ru_midpoint": [
        9.66516232937883,
        0.4977472776131593
      ],
      "bond_midpoint": [
        12.263228305259808,
        0.4977660759796587
      ],
      "orientation_vector": [
        0.0,
        1.0
      ],
      "half_bracket_size": 1.9997688137103982,
      "bond": [
        1,
        24
      ],
      "fragment": "F2",
      "backbone": true,
      "suspended_anchor_atom": null,
      "suspended_reason": null,
      "source_label": "F2/connected",
      "marker_id": "connected-overall-right",
      "side": "right",
      "connection_group": "$overall",
      "marker_type_index": null
    },
    {
      "id": 6,
      "bracket_kind": "backbone",
      "pairing_id": "F1/fragments[0]",
      "group_id": "$a:2",
      "ru_midpoint": [
        1.1601977402121313,
        0.4477572616116227
      ],
      "bond_midpoint": [
        -0.1388356569045741,
        0.49772847924665975
      ],
      "orientation_vector": [
        0.0,
        -1.0
      ],
      "half_bracket_size": 0.4999001600153621,
      "bond": [
        0,
        2
      ],
      "fragment": "F1",
      "backbone": true,
      "suspended_anchor_atom": null,
      "suspended_reason": null,
      "source_label": "F1/fragments[0]",
      "marker_id": "0",
      "side": "left",
      "connection_group": "$a",
      "marker_type_index": 2
    },
    {
      "id": 7,
      "bracket_kind": "backbone",
      "pairing_id": "F1/fragments[0]",
      "group_id": "$a:2",
      "ru_midpoint": [
        1.1601977402121313,
        0.4477572616116227
      ],
      "bond_midpoint": [
        3.3252129669735146,
        0.49772847924665975
      ],
      "orientation_vector": [
        0.0,
        -1.0
      ],
      "half_bracket_size": 0.4999001600153621,
      "bond": [
        6,
        7
      ],
      "fragment": "F1",
      "backbone": true,
      "suspended_anchor_atom": null,
      "suspended_reason": null,
      "source_label": "F1/fragments[0]",
      "marker_id": "6",
      "side": "right",
      "connection_group": "$a",
      "marker_type_index": 2
    },
    {
      "id": 8,
      "bracket_kind": "backbone",
      "pairing_id": "F1/fragments[1]",
      "group_id": "$a:2",
      "ru_midpoint": [
        4.191252589699672,
        0.4977284792466597
      ],
      "bond_midpoint": [
        3.3252129669735146,
        0.49772847924665975
      ],
      "orientation_vector": [
        0.0,
        1.0
      ],
      "half_bracket_size": 0.4999001600153621,
      "bond": [
        6,
        7
      ],
      "fragment": "F1",
      "backbone": true,
      "suspended_anchor_atom": null,
      "suspended_reason": null,
      "source_label": "F1/fragments[1]",
      "marker_id": "0",
      "side": "left",
      "connection_group": "$a",
      "marker_type_index": 2
    },
    {
      "id": 9,
      "bracket_kind": "backbone",
      "pairing_id": "F1/fragments[1]",
      "group_id": "$a:2",
      "ru_midpoint": [
        4.191252589699672,
        0.4977284792466597
      ],
      "bond_midpoint": [
        5.196159399925827,
        0.49772847924665975
      ],
      "orientation_vector": [
        0.0,
        1.0
      ],
      "half_bracket_size": 0.4999001600153621,
      "bond": [
        8,
        12
      ],
      "fragment": "F1",
      "backbone": true,
      "suspended_anchor_atom": null,
      "suspended_reason": null,
      "source_label": "F1/fragments[1]",
      "marker_id": "6",
      "side": "right",
      "connection_group": "$a",
      "marker_type_index": 2
    },
    {
      "id": 10,
      "bracket_kind": "backbone",
      "pairing_id": "F1/fragments[2]",
      "group_id": "$a:2",
      "ru_midpoint": [
        6.634111008191223,
        0.5810451725825534
      ],
      "bond_midpoint": [
        5.196159399925827,
        0.49772847924665975
      ],
      "orientation_vector": [
        0.0,
        1.0
      ],
      "half_bracket_size": 0.4999001600153621,
      "bond": [
        8,
        12
      ],
      "fragment": "F1",
      "backbone": true,
      "suspended_anchor_atom": null,
      "suspended_reason": null,
      "source_label": "F1/fragments[2]",
      "marker_id": "0",
      "side": "left",
      "connection_group": "$a",
      "marker_type_index": 2
    },
    {
      "id": 11,
      "bracket_kind": "backbone",
      "pairing_id": "F1/fragments[2]",
      "group_id": "$a:2",
      "ru_midpoint": [
        6.634111008191223,
        0.5810451725825534
      ],
      "bond_midpoint": [
        7.067103134403773,
        0.4977472776131592
      ],
      "orientation_vector": [
        0.0,
        1.0
      ],
      "half_bracket_size": 0.4999001600153621,
      "bond": [
        13,
        17
      ],
      "fragment": "F1",
      "backbone": true,
      "suspended_anchor_atom": null,
      "suspended_reason": null,
      "source_label": "F1/fragments[2]",
      "marker_id": "6",
      "side": "right",
      "connection_group": "$a",
      "marker_type_index": 2
    },
    {
      "id": 12,
      "bracket_kind": "backbone",
      "pairing_id": "F1/connected",
      "group_id": "$overall",
      "ru_midpoint": [
        3.408596934963179,
        0.497747277613159
      ],
      "bond_midpoint": [
        -0.1388356569045741,
        0.49772847924665975
      ],
      "orientation_vector": [
        0.0,
        -1.0
      ],
      "half_bracket_size": 2.9999227350143496,
      "bond": [
        0,
        2
      ],
      "fragment": "F1",
      "backbone": true,
      "suspended_anchor_atom": null,
      "suspended_reason": null,
      "source_label": "F1/connected",
      "marker_id": "connected-overall-left",
      "side": "left",
      "connection_group": "$overall",
      "marker_type_index": null
    },
    {
      "id": 13,
      "bracket_kind": "backbone",
      "pairing_id": "F1/connected",
      "group_id": "$overall",
      "ru_midpoint": [
        3.408596934963179,
        0.497747277613159
      ],
      "bond_midpoint": [
        7.067103134403773,
        0.4977472776131592
      ],
      "orientation_vector": [
        0.0,
        -1.0
      ],
      "half_bracket_size": 2.9999227350143496,
      "bond": [
        13,
        17
      ],
      "fragment": "F1",
      "backbone": true,
      "suspended_anchor_atom": null,
      "suspended_reason": null,
      "source_label": "F1/connected",
      "marker_id": "connected-overall-right",
      "side": "right",
      "connection_group": "$overall",
      "marker_type_index": null
    }
  ]
}
