
     RDKit          2D

  0  0  0  0  0  0  0  0  0  0999 V3000
M  V30 BEGIN CTAB
M  V30 COUNTS 23 23 2 0 0
M  V30 BEGIN ATOM
M  V30 1 H -6.295160 -0.803071 0.000000 0
M  V30 2 O -1.099207 -0.803068 0.000000 0
M  V30 3 C -0.233318 -0.302967 0.000000 0
M  V30 4 C 0.632562 -0.803068 0.000000 0
M  V30 5 C 3.230540 -0.303018 0.000000 0
M  V30 6 C 4.096429 -0.803119 0.000000 0
M  V30 7 C 4.962309 -0.303018 0.000000 0
M  V30 8 C 3.230540 0.696982 0.000000 0
M  V30 9 O -5.429185 -0.302983 0.000000 0
M  V30 10 C -4.563181 -0.803084 0.000000 0
M  V30 11 O -4.563179 -1.803084 0.000000 0
M  V30 12 O -3.697185 -0.302983 0.000000 0
M  V30 13 C -2.831180 -0.803084 0.000000 0
M  V30 14 C -2.831180 -1.803084 0.000000 0
M  V30 15 C -1.965184 -0.302983 0.000000 0
M  V30 16 C 1.498584 -0.303061 0.000000 0
M  V30 17 C 2.364543 -0.803069 0.000000 0
M  V30 18 C 2.364543 -1.803071 0.000000 0
M  V30 19 C 1.498342 -2.303004 0.000000 0
M  V30 20 C 1.498542 -3.303006 0.000000 0
M  V30 21 C 2.364343 -3.803075 0.000000 0
M  V30 22 C 3.230545 -3.303142 0.000000 0
M  V30 23 C 3.230345 -2.303140 0.000000 0
M  V30 END ATOM
M  V30 BEGIN BOND
M  V30 1 1 2 3
M  V30 2 1 3 4
M  V30 3 1 5 6
M  V30 4 1 6 7
M  V30 5 1 5 8
M  V30 6 1 9 10
M  V30 7 2 10 11
M  V30 8 1 10 12
M  V30 9 1 12 13
M  V30 10 1 13 14
M  V30 11 1 13 15
M  V30 12 1 1 9
M  V30 13 1 2 15
M  V30 14 1 16 17
M  V30 15 1 17 18
M  V30 16 2 18 19
M  V30 17 1 19 20
M  V30 18 2 20 21
M  V30 19 1 21 22
M  V30 20 2 22 23
M  V30 21 1 23 18
M  V30 22 1 4 16
M  V30 23 1 5 17
M  V30 END BOND
M  V30 BEGIN SGROUP
M  V30 1 SRU 0 ATOMS=(4 4 5 16 17) CBONDS=(2 22 23) -
M  V30 BRKXYZ=(9 1.0656 -0.0531 0 1.0656 -1.0531 0 0 0 0) BRKXYZ=(9 2.7975 -0.-
M  V30 0530 0 2.7975 -1.0531 0 0 0 0)
M  V30 2 SRU 0 ATOMS=(4 1 2 9 15) CBONDS=(2 12 13) -
M  V30 BRKXYZ=(9 -5.8622 -0.0529 0 -5.8622 -1.0531 0 0 0 0) BRKXYZ=(9 -1.5322 -
M  V30 -0.0529 0 -1.5322 -1.0531 0 0 0 0)
M  V30 END SGROUP
M  V30 END CTAB
M  END
>  <BIGSMILES_BRACKET_RECORDS_JSON>
{
  "records": [
    {
      "id": 0,
      "bracket_kind": "backbone",
      "pairing_id": "F2/fragments[0]",
      "group_id": "$a:2",
      "ru_midpoint": [
        1.9315383794354488,
        -0.5530649944149526
      ],
      "bond_midpoint": [
        1.065573339835788,
        -0.5530644944093939
      ],
      "orientation_vector": [
        0.0,
        1.0
      ],
      "half_bracket_size": 0.5000070589092322,
      "bond": [
        3,
        15
      ],
      "fragment": "F2",
      "backbone": true,
      "suspended_anchor_atom": null,
      "suspended_reason": null,
      "source_label": "F2/fragments[0]",
      "marker_id": "0",
      "side": "left",
      "connection_group": "$a",
      "marker_type_index": 2
    },
    {
      "id": 1,
      "bracket_kind": "backbone",
      "pairing_id": "F2/fragments[0]",
      "group_id": "$a:2",
      "ru_midpoint": [
        1.9315383794354488,
        -0.5530649944149526
      ],
      "bond_midpoint": [
        2.7975416197719554,
        -0.5530434363224948
      ],
      "orientation_vector": [
        0.0,
        1.0
      ],
      "half_bracket_size": 0.5000070589092322,
      "bond": [
        4,
        16
      ],
      "fragment": "F2",
      "backbone": true,
      "suspended_anchor_atom": null,
      "suspended_reason": null,
      "source_label": "F2/fragments[0]",
      "marker_id": "9",
      "side": "right",
      "connection_group": "$a",
      "marker_type_index": 2
    },
    {
      "id": 2,
      "bracket_kind": "backbone",
      "pairing_id": "F1/fragments[0]",
      "group_id": "<1:3",
      "ru_midpoint": [
        -3.697182170750993,
        -0.5887548863168747
      ],
      "bond_midpoint": [
        -5.862172503394701,
        -0.5530272803135521
      ],
      "orientation_vector": [
        0.0,
        1.0
      ],
      "half_bracket_size": 0.5001001599500257,
      "bond": [
        0,
        8
      ],
      "fragment": "F1",
      "backbone": true,
      "suspended_anchor_atom": null,
      "suspended_reason": null,
      "source_label": "F1/fragments[0]",
      "marker_id": "0",
      "side": "left",
      "connection_group": "<1",
      "marker_type_index": 3
    },
    {
      "id": 3,
      "bracket_kind": "backbone",
      "pairing_id": "F1/fragments[0]",
      "group_id": ">1:4",
      "ru_midpoint": [
        -3.697182170750993,
        -0.5887548863168747
      ],
      "bond_midpoint": [
        -1.5321956215888368,
        -0.5530254451019412
      ],
      "orientation_vector": [
        0.0,
        1.0
      ],
      "half_bracket_size": 0.5001001599500257,
      "bond": [
        1,
        14
      ],
      "fragment": "F1",
      "backbone": true,
      "suspended_anchor_atom": null,
      "suspended_reason": null,
      "source_label": "F1/fragments[0]",
      "marker_id": "8",
      "side": "right",
      "connection_group": ">1",
      "marker_type_index": 4
    }
  ]
}
