
     RDKit          2D

  0  0  0  0  0  0  0  0  0  0999 V3000
M  V30 BEGIN CTAB
M  V30 COUNTS 22 22 5 0 0
M  V30 BEGIN ATOM
M  V30 1 H 0.433193 -0.252468 0.000000 0
M  V30 2 H 11.691280 0.247491 0.000000 0
M  V30 3 C 1.299152 0.247539 0.000000 0
M  V30 4 C 2.165111 -0.252468 0.000000 0
M  V30 5 C 2.165111 -1.252470 0.000000 0
M  V30 6 C 1.298909 -1.752403 0.000000 0
M  V30 7 C 1.299109 -2.752405 0.000000 0
M  V30 8 C 2.164911 -3.252474 0.000000 0
M  V30 9 C 3.031113 -2.752541 0.000000 0
M  V30 10 C 3.030913 -1.752539 0.000000 0
M  V30 11 C 3.031160 0.247491 0.000000 0
M  V30 12 C 3.897209 -0.252481 0.000000 0
M  V30 13 C 4.763165 0.247491 0.000000 0
M  V30 14 C 5.629141 -0.252481 0.000000 0
M  V30 15 C 6.495183 0.247491 0.000000 0
M  V30 16 C 7.361187 -0.252409 0.000000 0
M  V30 17 C 8.227183 0.247491 0.000000 0
M  V30 18 C 9.093188 -0.252409 0.000000 0
M  V30 19 C 9.959271 0.247491 0.000000 0
M  V30 20 C 10.825275 -0.252409 0.000000 0
M  V30 21 C 10.825275 -1.252434 0.000000 0
M  V30 22 C 9.959123 -1.752278 0.000000 0
M  V30 END ATOM
M  V30 BEGIN BOND
M  V30 1 1 3 4
M  V30 2 1 4 5
M  V30 3 2 5 6
M  V30 4 1 6 7
M  V30 5 2 7 8
M  V30 6 1 8 9
M  V30 7 2 9 10
M  V30 8 1 10 5
M  V30 9 1 1 3
M  V30 10 1 11 12
M  V30 11 2 12 13
M  V30 12 1 13 14
M  V30 13 1 15 16
M  V30 14 2 16 17
M  V30 15 1 17 18
M  V30 16 1 14 15
M  V30 17 1 19 20
M  V30 18 1 20 21
M  V30 19 2 21 22
M  V30 20 1 18 19
M  V30 21 1 4 11
M  V30 22 1 2 20
M  V30 END BOND
M  V30 BEGIN SGROUP
M  V30 1 SRU 0 ATOMS=(4 4 11 14 15) CBONDS=(2 16 21) -
M  V30 BRKXYZ=(9 2.5981 -0.5025 0 2.5981 0.4975 0 0 0 0) BRKXYZ=(9 6.0622 -0.5-
M  V30 025 0 6.0622 0.4975 0 0 0 0)
M  V30 2 SRU 0 ATOMS=(4 14 15 18 19) CBONDS=(2 16 20) -
M  V30 BRKXYZ=(9 6.0622 0.4975 0 6.0622 -0.5025 0 0 0 0) BRKXYZ=(9 9.5262 0.49-
M  V30 75 0 9.5262 -0.5024 0 0 0 0)
M  V30 3 SRU 0 ATOMS=(4 2 18 19 20) CBONDS=(2 20 22) -
M  V30 BRKXYZ=(9 9.5262 0.4975 0 9.5262 -0.5024 0 0 0 0) BRKXYZ=(9 11.2583 0.4-
M  V30 975 0 11.2583 -0.5024 0 0 0 0)
M  V30 4 SRU 0 ATOMS=(4 2 4 11 20) CBONDS=(2 21 22) -
M  V30 BRKXYZ=(9 2.5981 -0.5525 0 2.5981 0.5475 0 0 0 0) BRKXYZ=(9 11.2583 -0.-
M  V30 5524 0 11.2583 0.5475 0 0 0 0)
M  V30 5 SRU 0 ATOMS=(4 1 3 4 11) CBONDS=(2 9 21) -
M  V30 BRKXYZ=(9 0.8662 0.4975 0 0.8662 -0.5025 0 0 0 0) BRKXYZ=(9 2.5981 0.49-
M  V30 75 0 2.5981 -0.5025 0 0 0 0)
M  V30 END SGROUP
M  V30 END CTAB
M  END
>  <BIGSMILES_BRACKET_RECORDS_JSON>
{
  "records": [
    {
      "id": 0,
      "bracket_kind": "backbone",
      "pairing_id": "F2/fragments[0]",
      "group_id": "$a:2",
      "ru_midpoint": [
        4.330143395076053,
        -0.0024948033542032356
      ],
      "bond_midpoint": [
        2.5981354731875888,
        -0.002488318972664383
      ],
      "orientation_vector": [
        0.0,
        -1.0
      ],
      "half_bracket_size": 0.4999717690767955,
      "bond": [
        3,
        10
      ],
      "fragment": "F2",
      "backbone": true,
      "suspended_anchor_atom": null,
      "suspended_reason": null,
      "source_label": "F2/fragments[0]",
      "marker_id": "0",
      "side": "left",
      "connection_group": "$a",
      "marker_type_index": 2
    },
    {
      "id": 1,
      "bracket_kind": "backbone",
      "pairing_id": "F2/fragments[0]",
      "group_id": "$a:2",
      "ru_midpoint": [
        4.330143395076053,
        -0.0024948033542032356
      ],
      "bond_midpoint": [
        6.062162076768763,
        -0.002494803354203018
      ],
      "orientation_vector": [
        0.0,
        -1.0
      ],
      "half_bracket_size": 0.4999717690767955,
      "bond": [
        13,
        14
      ],
      "fragment": "F2",
      "backbone": true,
      "suspended_anchor_atom": null,
      "suspended_reason": null,
      "source_label": "F2/fragments[0]",
      "marker_id": "5",
      "side": "right",
      "connection_group": "$a",
      "marker_type_index": 2
    },
    {
      "id": 2,
      "bracket_kind": "backbone",
      "pairing_id": "F2/fragments[1]",
      "group_id": "$a:2",
      "ru_midpoint": [
        7.79418539039018,
        -0.0024589988234860706
      ],
      "bond_midpoint": [
        6.062162076768763,
        -0.002494803354203018
      ],
      "orientation_vector": [
        0.0,
        1.0
      ],
      "half_bracket_size": 0.4999717690767955,
      "bond": [
        13,
        14
      ],
      "fragment": "F2",
      "backbone": true,
      "suspended_anchor_atom": null,
      "suspended_reason": null,
      "source_label": "F2/fragments[1]",
      "marker_id": "0",
      "side": "left",
      "connection_group": "$a",
      "marker_type_index": 2
    },
    {
      "id": 3,
      "bracket_kind": "backbone",
      "pairing_id": "F2/fragments[1]",
      "group_id": "$a:2",
      "ru_midpoint": [
        7.79418539039018,
        -0.0024589988234860706
      ],
      "bond_midpoint": [
        9.526229372237362,
        -0.0024589988234857696
      ],
      "orientation_vector": [
        0.0,
        1.0
      ],
      "half_bracket_size": 0.4999717690767955,
      "bond": [
        17,
        18
      ],
      "fragment": "F2",
      "backbone": true,
      "suspended_anchor_atom": null,
      "suspended_reason": null,
      "source_label": "F2/fragments[1]",
      "marker_id": "5",
      "side": "right",
      "connection_group": "$a",
      "marker_type_index": 2
    },
    {
      "id": 4,
      "bracket_kind": "backbone",
      "pairing_id": "F2/fragments[2]",
      "group_id": "$a:2",
      "ru_midpoint": [
        10.392255485575493,
        -0.0024589188394991924
      ],
      "bond_midpoint": [
        9.526229372237362,
        -0.0024589988234857696
      ],
      "orientation_vector": [
        0.0,
        1.0
      ],
      "half_bracket_size": 0.4999717690767955,
      "bond": [
        17,
        18
      ],
      "fragment": "F2",
      "backbone": true,
      "suspended_anchor_atom": null,
      "suspended_reason": null,
      "source_label": "F2/fragments[2]",
      "marker_id": "0",
      "side": "left",
      "connection_group": "$a",
      "marker_type_index": 2
    },
    {
      "id": 5,
      "bracket_kind": "backbone",
      "pairing_id": "F2/fragments[2]",
      "group_id": "$a:2",
      "ru_midpoint": [
        10.392255485575493,
        -0.0024589188394991924
      ],
      "bond_midpoint": [
        11.258277430295683,
        -0.0024589988234857696
      ],
      "orientation_vector": [
        0.0,
        1.0
      ],
      "half_bracket_size": 0.4999717690767955,
      "bond": [
        1,
        19
      ],
      "fragment": "F2",
      "backbone": true,
      "suspended_anchor_atom": null,
      "suspended_reason": null,
      "source_label": "F2/fragments[2]",
      "marker_id": "5",
      "side": "right",
      "connection_group": "$a",
      "marker_type_index": 2
    },
    {
      "id": 6,
      "bracket_kind": "backbone",
      "pairing_id": "F2/connected",
      "group_id": "$overall",
      "ru_midpoint": [
        6.928161450777387,
        -0.002476821104857997
      ],
      "bond_midpoint": [
        2.5981354731875888,
        -0.002488318972664383
      ],
      "orientation_vector": [
        0.0,
        -1.0
      ],
      "half_bracket_size": 0.5499689459844751,
      "bond": [
        3,
        10
      ],
      "fragment": "F2",
      "backbone": true,
      "suspended_anchor_atom": null,
      "suspended_reason": null,
      "source_label": "F2/connected",
      "marker_id": "connected-overall-left",
      "side": "left",
      "connection_group": "$overall",
      "marker_type_index": null
    },
    {
      "id": 7,
      "bracket_kind": "backbone",
      "pairing_id": "F2/connected",
      "group_id": "$overall",
      "ru_midpoint": [
        6.928161450777387,
        -0.002476821104857997
      ],
      "bond_midpoint": [
        11.258277430295683,
        -0.0024589988234857696
      ],
      "orientation_vector": [
        0.0,
        -1.0
      ],
      "half_bracket_size": 0.5499689459844751,
      "bond": [
        1,
        19
      ],
      "fragment": "F2",
      "backbone": true,
      "suspended_anchor_atom": null,
      "suspended_reason": null,
      "source_label": "F2/connected",
      "marker_id": "connected-overall-right",
      "side": "right",
      "connection_group": "$overall",
      "marker_type_index": null
    },
    {
      "id": 8,
      "bracket_kind": "backbone",
      "pairing_id": "F1/fragments[0]",
      "group_id": "<1:3",
      "ru_midpoint": [
        1.7321372524880976,
        -0.002464689680465505
      ],
      "bond_midpoint": [
        0.8661722128884364,
        -0.002464189674906983
      ],
      "orientation_vector": [
        0.0,
        1.0
      ],
      "half_bracket_size": 0.5000070589092322,
      "bond": [
        0,
        2
      ],
      "fragment": "F1",
      "backbone": true,
      "suspended_anchor_atom": null,
      "suspended_reason": null,
      "source_label": "F1/fragments[0]",
      "marker_id": "0",
      "side": "left",
      "connection_group": "<1",
      "marker_type_index": 3
    },
    {
      "id": 9,
      "bracket_kind": "backbone",
      "pairing_id": "F1/fragments[0]",
      "group_id": ">1:4",
      "ru_midpoint": [
        1.7321372524880976,
        -0.002464689680465505
      ],
      "bond_midpoint": [
        2.5981354731875888,
        -0.002488318972664383
      ],
      "orientation_vector": [
        0.0,
        1.0
      ],
      "half_bracket_size": 0.5000070589092322,
      "bond": [
        3,
        10
      ],
      "fragment": "F1",
      "backbone": true,
      "suspended_anchor_atom": null,
      "suspended_reason": null,
      "source_label": "F1/fragments[0]",
      "marker_id": "9",
      "side": "right",
      "connection_group": ">1",
      "marker_type_index": 4
    }
  ]
}
