
     RDKit          2D

  0  0  0  0  0  0  0  0  0  0999 V3000
M  V30 BEGIN CTAB
M  V30 COUNTS 30 29 6 0 0
M  V30 BEGIN ATOM
M  V30 1 H -8.539607 0.077191 0.000000 0
M  V30 2 C 5.594531 0.077178 0.000000 0
M  V30 3 C 6.460536 -0.422922 0.000000 0
M  V30 4 C 7.326532 0.077178 0.000000 0
M  V30 5 C 5.594531 1.077179 0.000000 0
M  V30 6 O -7.673544 -0.422743 0.000000 0
M  V30 7 C -6.807548 0.077157 0.000000 0
M  V30 8 O -6.807550 1.077157 0.000000 0
M  V30 9 C -5.941543 -0.422743 0.000000 0
M  V30 10 C -5.941543 -1.422668 0.000000 0
M  V30 11 C -5.075482 0.077194 0.000000 0
M  V30 12 C -4.209478 -0.422706 0.000000 0
M  V30 13 C -3.343481 0.077194 0.000000 0
M  V30 14 C -3.343481 1.077195 0.000000 0
M  V30 15 C -2.477477 -0.422706 0.000000 0
M  V30 16 C -1.611394 0.077194 0.000000 0
M  V30 17 C -0.745465 -0.422822 0.000000 0
M  V30 18 C 0.120552 0.077194 0.000000 0
M  V30 19 C 0.120552 1.077219 0.000000 0
M  V30 20 C 0.986605 -0.422822 0.000000 0
M  V30 21 C 1.852621 0.077194 0.000000 0
M  V30 22 C 2.718617 -0.422706 0.000000 0
M  V30 23 C 2.718617 -1.422638 0.000000 0
M  V30 24 C 1.852731 -1.922728 0.000000 0
M  V30 25 C 3.584677 -1.922579 0.000000 0
M  V30 26 C 3.862435 0.077194 0.000000 0
M  V30 27 C 4.728439 -0.422706 0.000000 0
M  V30 28 C 4.728439 -1.422631 0.000000 0
M  V30 29 C 3.862547 -1.922725 0.000000 0
M  V30 30 C 4.728439 0.577219 0.000000 0
M  V30 END ATOM
M  V30 BEGIN BOND
M  V30 1 1 2 3
M  V30 2 1 3 4
M  V30 3 1 2 5
M  V30 4 1 6 7
M  V30 5 2 7 8
M  V30 6 1 7 9
M  V30 7 1 9 10
M  V30 8 1 1 6
M  V30 9 1 11 12
M  V30 10 2 12 13
M  V30 11 1 13 14
M  V30 12 1 13 15
M  V30 13 1 16 17
M  V30 14 2 17 18
M  V30 15 1 18 19
M  V30 16 1 18 20
M  V30 17 1 15 16
M  V30 18 1 21 22
M  V30 19 1 22 23
M  V30 20 1 23 24
M  V30 21 2 23 25
M  V30 22 1 20 21
M  V30 23 1 26 27
M  V30 24 1 27 28
M  V30 25 2 28 29
M  V30 26 1 27 30
M  V30 27 1 22 26
M  V30 28 1 9 11
M  V30 29 1 2 27
M  V30 END BOND
M  V30 BEGIN SGROUP
M  V30 1 SRU 0 ATOMS=(4 9 11 15 16) CBONDS=(2 17 28) -
M  V30 BRKXYZ=(9 -5.5085 -0.6728 0 -5.5085 0.3272 0 0 0 0) BRKXYZ=(9 -2.0444 --
M  V30 0.6728 0 -2.0444 0.3273 0 0 0 0)
M  V30 2 SRU 0 ATOMS=(4 15 16 20 21) CBONDS=(2 17 22) -
M  V30 BRKXYZ=(9 -2.0444 -0.6728 0 -2.0444 0.3273 0 0 0 0) BRKXYZ=(9 1.4196 -0-
M  V30 .6728 0 1.4196 0.3272 0 0 0 0)
M  V30 3 SRU 0 ATOMS=(4 20 21 22 26) CBONDS=(2 22 27) -
M  V30 BRKXYZ=(9 1.4196 0.3272 0 1.4196 -0.6728 0 0 0 0) BRKXYZ=(9 3.2905 0.32-
M  V30 73 0 3.2905 -0.6728 0 0 0 0)
M  V30 4 SRU 0 ATOMS=(4 2 22 26 27) CBONDS=(2 27 29) -
M  V30 BRKXYZ=(9 3.2905 0.3273 0 3.2905 -0.6728 0 0 0 0) BRKXYZ=(9 5.1615 0.32-
M  V30 73 0 5.1615 -0.6728 0 0 0 0)
M  V30 5 SRU 0 ATOMS=(4 2 9 11 27) CBONDS=(2 28 29) -
M  V30 BRKXYZ=(9 -5.5085 -1.6728 0 -5.5085 1.3273 0 0 0 0) BRKXYZ=(9 5.1615 -1-
M  V30 .6728 0 5.1615 1.3273 0 0 0 0)
M  V30 6 SRU 0 ATOMS=(4 1 6 9 11) CBONDS=(2 8 28) -
M  V30 BRKXYZ=(9 -8.1066 0.3271 0 -8.1066 -0.6727 0 0 0 0) BRKXYZ=(9 -5.5085 0-
M  V30 .3271 0 -5.5085 -0.6727 0 0 0 0)
M  V30 END SGROUP
M  V30 END CTAB
M  END
>  <BIGSMILES_BRACKET_RECORDS_JSON>
{
  "records": [
    {
      "id": 0,
      "bracket_kind": "backbone",
      "pairing_id": "F2/fragments[0]",
      "group_id": "$a:2",
      "ru_midpoint": [
        -4.209479207156209,
        -0.22274581446007086
      ],
      "bond_midpoint": [
        -5.508512604272914,
        -0.17277459682503377
      ],
      "orientation_vector": [
        0.0,
        -1.0
      ],
      "half_bracket_size": 0.5000159978427487,
      "bond": [
        8,
        10
      ],
      "fragment": "F2",
      "backbone": true,
      "suspended_anchor_atom": null,
      "suspended_reason": null,
      "source_label": "F2/fragments[0]",
      "marker_id": "0",
      "side": "left",
      "connection_group": "$a",
      "marker_type_index": 2
    },
    {
      "id": 1,
      "bracket_kind": "backbone",
      "pairing_id": "F2/fragments[0]",
      "group_id": "$a:2",
      "ru_midpoint": [
        -4.209479207156209,
        -0.22274581446007086
      ],
      "bond_midpoint": [
        -2.0444354914751997,
        -0.17275579845853467
      ],
      "orientation_vector": [
        0.0,
        -1.0
      ],
      "half_bracket_size": 0.5000159978427487,
      "bond": [
        14,
        15
      ],
      "fragment": "F2",
      "backbone": true,
      "suspended_anchor_atom": null,
      "suspended_reason": null,
      "source_label": "F2/fragments[0]",
      "marker_id": "6",
      "side": "right",
      "connection_group": "$a",
      "marker_type_index": 2
    },
    {
      "id": 2,
      "bracket_kind": "backbone",
      "pairing_id": "F2/fragments[1]",
      "group_id": "$a:2",
      "ru_midpoint": [
        -0.3124254280660601,
        -0.17281371737222784
      ],
      "bond_midpoint": [
        -2.0444354914751997,
        -0.17275579845853467
      ],
      "orientation_vector": [
        0.0,
        -1.0
      ],
      "half_bracket_size": 0.5000159978427487,
      "bond": [
        14,
        15
      ],
      "fragment": "F2",
      "backbone": true,
      "suspended_anchor_atom": null,
      "suspended_reason": null,
      "source_label": "F2/fragments[1]",
      "marker_id": "0",
      "side": "left",
      "connection_group": "$a",
      "marker_type_index": 2
    },
    {
      "id": 3,
      "bracket_kind": "backbone",
      "pairing_id": "F2/fragments[1]",
      "group_id": "$a:2",
      "ru_midpoint": [
        -0.3124254280660601,
        -0.17281371737222784
      ],
      "bond_midpoint": [
        1.4196130939723477,
        -0.17281371737222775
      ],
      "orientation_vector": [
        0.0,
        -1.0
      ],
      "half_bracket_size": 0.5000159978427487,
      "bond": [
        19,
        20
      ],
      "fragment": "F2",
      "backbone": true,
      "suspended_anchor_atom": null,
      "suspended_reason": null,
      "source_label": "F2/fragments[1]",
      "marker_id": "6",
      "side": "right",
      "connection_group": "$a",
      "marker_type_index": 2
    },
    {
      "id": 4,
      "bracket_kind": "backbone",
      "pairing_id": "F2/fragments[2]",
      "group_id": "$a:2",
      "ru_midpoint": [
        2.2856192809360225,
        -0.1727557984585346
      ],
      "bond_midpoint": [
        1.4196130939723477,
        -0.17281371737222775
      ],
      "orientation_vector": [
        0.0,
        1.0
      ],
      "half_bracket_size": 0.5000159978427487,
      "bond": [
        19,
        20
      ],
      "fragment": "F2",
      "backbone": true,
      "suspended_anchor_atom": null,
      "suspended_reason": null,
      "source_label": "F2/fragments[2]",
      "marker_id": "0",
      "side": "left",
      "connection_group": "$a",
      "marker_type_index": 2
    },
    {
      "id": 5,
      "bracket_kind": "backbone",
      "pairing_id": "F2/fragments[2]",
      "group_id": "$a:2",
      "ru_midpoint": [
        2.2856192809360225,
        -0.1727557984585346
      ],
      "bond_midpoint": [
        3.2905260911621785,
        -0.17275579845853462
      ],
      "orientation_vector": [
        0.0,
        1.0
      ],
      "half_bracket_size": 0.5000159978427487,
      "bond": [
        21,
        25
      ],
      "fragment": "F2",
      "backbone": true,
      "suspended_anchor_atom": null,
      "suspended_reason": null,
      "source_label": "F2/fragments[2]",
      "marker_id": "6",
      "side": "right",
      "connection_group": "$a",
      "marker_type_index": 2
    },
    {
      "id": 6,
      "bracket_kind": "backbone",
      "pairing_id": "F2/fragments[3]",
      "group_id": "$a:2",
      "ru_midpoint": [
        4.728477699427574,
        -0.08943910512264103
      ],
      "bond_midpoint": [
        3.2905260911621785,
        -0.17275579845853462
      ],
      "orientation_vector": [
        0.0,
        1.0
      ],
      "half_bracket_size": 0.5000159978427487,
      "bond": [
        21,
        25
      ],
      "fragment": "F2",
      "backbone": true,
      "suspended_anchor_atom": null,
      "suspended_reason": null,
      "source_label": "F2/fragments[3]",
      "marker_id": "0",
      "side": "left",
      "connection_group": "$a",
      "marker_type_index": 2
    },
    {
      "id": 7,
      "bracket_kind": "backbone",
      "pairing_id": "F2/fragments[3]",
      "group_id": "$a:2",
      "ru_midpoint": [
        4.728477699427574,
        -0.08943910512264103
      ],
      "bond_midpoint": [
        5.161485292867249,
        -0.17276379647719223
      ],
      "orientation_vector": [
        0.0,
        1.0
      ],
      "half_bracket_size": 0.5000159978427487,
      "bond": [
        1,
        26
      ],
      "fragment": "F2",
      "backbone": true,
      "suspended_anchor_atom": null,
      "suspended_reason": null,
      "source_label": "F2/fragments[3]",
      "marker_id": "6",
      "side": "right",
      "connection_group": "$a",
      "marker_type_index": 2
    },
    {
      "id": 8,
      "bracket_kind": "backbone",
      "pairing_id": "F2/connected",
      "group_id": "$overall",
      "ru_midpoint": [
        -0.25288757770646564,
        -0.17277234671958985
      ],
      "bond_midpoint": [
        -5.508512604272914,
        -0.17277459682503377
      ],
      "orientation_vector": [
        0.0,
        -1.0
      ],
      "half_bracket_size": 1.5000406575386986,
      "bond": [
        8,
        10
      ],
      "fragment": "F2",
      "backbone": true,
      "suspended_anchor_atom": null,
      "suspended_reason": null,
      "source_label": "F2/connected",
      "marker_id": "connected-overall-left",
      "side": "left",
      "connection_group": "$overall",
      "marker_type_index": null
    },
    {
      "id": 9,
      "bracket_kind": "backbone",
      "pairing_id": "F2/connected",
      "group_id": "$overall",
      "ru_midpoint": [
        -0.25288757770646564,
        -0.17277234671958985
      ],
      "bond_midpoint": [
        5.161485292867249,
        -0.17276379647719223
      ],
      "orientation_vector": [
        0.0,
        -1.0
      ],
      "half_bracket_size": 1.5000406575386986,
      "bond": [
        1,
        26
      ],
      "fragment": "F2",
      "backbone": true,
      "suspended_anchor_atom": null,
      "suspended_reason": null,
      "source_label": "F2/connected",
      "marker_id": "connected-overall-right",
      "side": "right",
      "connection_group": "$overall",
      "marker_type_index": null
    },
    {
      "id": 10,
      "bracket_kind": "backbone",
      "pairing_id": "F1/fragments[0]",
      "group_id": "<1:3",
      "ru_midpoint": [
        -6.807528561082754,
        -0.12280337918999651
      ],
      "bond_midpoint": [
        -8.106575525917872,
        -0.17277636185208384
      ],
      "orientation_vector": [
        0.0,
        1.0
      ],
      "half_bracket_size": 0.4999001600153621,
      "bond": [
        0,
        5
      ],
      "fragment": "F1",
      "backbone": true,
      "suspended_anchor_atom": null,
      "suspended_reason": null,
      "source_label": "F1/fragments[0]",
      "marker_id": "0",
      "side": "left",
      "connection_group": "<1",
      "marker_type_index": 3
    },
    {
      "id": 11,
      "bracket_kind": "backbone",
      "pairing_id": "F1/fragments[0]",
      "group_id": ">1:4",
      "ru_midpoint": [
        -6.807528561082754,
        -0.12280337918999651
      ],
      "bond_midpoint": [
        -5.508512604272914,
        -0.17277459682503377
      ],
      "orientation_vector": [
        0.0,
        1.0
      ],
      "half_bracket_size": 0.4999001600153621,
      "bond": [
        8,
        10
      ],
      "fragment": "F1",
      "backbone": true,
      "suspended_anchor_atom": null,
      "suspended_reason": null,
      "source_label": "F1/fragments[0]",
      "marker_id": "6",
      "side": "right",
      "connection_group": ">1",
      "marker_type_index": 4
    }
  ]
}
