
     RDKit          2D

  0  0  0  0  0  0  0  0  0  0999 V3000
M  V30 BEGIN CTAB
M  V30 COUNTS 32 31 6 0 0
M  V30 BEGIN ATOM
M  V30 1 C -0.947806 -1.087794 0.000000 0
M  V30 2 Si -0.081759 -1.587806 0.000000 0 VAL=4
M  V30 3 C -0.081759 -0.587874 0.000000 0
M  V30 4 C -0.081759 -2.587738 0.000000 0
M  V30 5 C 13.186394 -1.087900 0.000000 0
M  V30 6 C 14.052334 -1.587913 0.000000 0
M  V30 7 C 14.918381 -1.087900 0.000000 0
M  V30 8 C 13.186394 -2.087901 0.000000 0
M  V30 9 Si 0.784266 -1.087806 0.000000 0 VAL=4
M  V30 10 C 0.784266 -2.087731 0.000000 0
M  V30 11 C 0.784266 -0.087781 0.000000 0
M  V30 12 O 1.650320 -1.587822 0.000000 0
M  V30 13 C 2.516381 -1.087884 0.000000 0
M  V30 14 C 3.382385 -1.587784 0.000000 0
M  V30 15 C 4.248381 -1.087884 0.000000 0
M  V30 16 C 4.248381 -0.087884 0.000000 0
M  V30 17 C 5.114386 -1.587784 0.000000 0
M  V30 18 C 5.980469 -1.087884 0.000000 0
M  V30 19 C 6.846398 -1.587900 0.000000 0
M  V30 20 C 7.712415 -1.087884 0.000000 0
M  V30 21 C 7.712415 -0.087860 0.000000 0
M  V30 22 C 8.578468 -1.587900 0.000000 0
M  V30 23 C 9.444484 -1.087884 0.000000 0
M  V30 24 C 10.310480 -1.587784 0.000000 0
M  V30 25 C 10.310480 -2.587716 0.000000 0
M  V30 26 C 9.444594 -3.087807 0.000000 0
M  V30 27 C 11.176540 -3.087658 0.000000 0
M  V30 28 C 11.454298 -1.087884 0.000000 0
M  V30 29 C 12.320302 -1.587784 0.000000 0
M  V30 30 C 12.320302 -0.587860 0.000000 0
M  V30 31 C 12.320302 -2.587709 0.000000 0
M  V30 32 C 11.454410 -3.087803 0.000000 0
M  V30 END ATOM
M  V30 BEGIN BOND
M  V30 1 1 1 2
M  V30 2 1 2 3
M  V30 3 1 2 4
M  V30 4 1 5 6
M  V30 5 1 6 7
M  V30 6 1 5 8
M  V30 7 1 9 10
M  V30 8 1 9 11
M  V30 9 1 9 12
M  V30 10 1 2 9
M  V30 11 1 13 14
M  V30 12 2 14 15
M  V30 13 1 15 16
M  V30 14 1 15 17
M  V30 15 1 18 19
M  V30 16 2 19 20
M  V30 17 1 20 21
M  V30 18 1 20 22
M  V30 19 1 17 18
M  V30 20 1 23 24
M  V30 21 1 24 25
M  V30 22 1 25 26
M  V30 23 2 25 27
M  V30 24 1 22 23
M  V30 25 1 28 29
M  V30 26 1 29 30
M  V30 27 1 29 31
M  V30 28 2 31 32
M  V30 29 1 24 28
M  V30 30 1 12 13
M  V30 31 1 5 29
M  V30 END BOND
M  V30 BEGIN SGROUP
M  V30 1 SRU 0 ATOMS=(4 12 13 17 18) CBONDS=(2 19 30) -
M  V30 BRKXYZ=(9 2.0834 -1.8379 0 2.0834 -0.8378 0 0 0 0) BRKXYZ=(9 5.5474 -1.-
M  V30 8379 0 5.5474 -0.8378 0 0 0 0)
M  V30 2 SRU 0 ATOMS=(4 17 18 22 23) CBONDS=(2 19 24) -
M  V30 BRKXYZ=(9 5.5474 -1.8379 0 5.5474 -0.8378 0 0 0 0) BRKXYZ=(9 9.0115 -1.-
M  V30 8379 0 9.0115 -0.8379 0 0 0 0)
M  V30 3 SRU 0 ATOMS=(4 22 23 24 28) CBONDS=(2 24 29) -
M  V30 BRKXYZ=(9 9.0115 -0.8379 0 9.0115 -1.8379 0 0 0 0) BRKXYZ=(9 10.8824 -0-
M  V30 .8378 0 10.8824 -1.8379 0 0 0 0)
M  V30 4 SRU 0 ATOMS=(4 5 24 28 29) CBONDS=(2 29 31) -
M  V30 BRKXYZ=(9 10.8824 -0.8378 0 10.8824 -1.8379 0 0 0 0) BRKXYZ=(9 12.7533 -
M  V30 -0.8378 0 12.7533 -1.8379 0 0 0 0)
M  V30 5 SRU 0 ATOMS=(4 5 12 13 29) CBONDS=(2 30 31) -
M  V30 BRKXYZ=(9 2.0834 -2.8379 0 2.0834 0.1622 0 0 0 0) BRKXYZ=(9 12.7533 -2.-
M  V30 8379 0 12.7533 0.1622 0 0 0 0)
M  V30 6 SRU 0 ATOMS=(4 2 9 12 13) CBONDS=(2 10 30) -
M  V30 BRKXYZ=(9 0.3513 -1.8378 0 0.3513 -0.8378 0 0 0 0) BRKXYZ=(9 2.0834 -1.-
M  V30 8379 0 2.0834 -0.8378 0 0 0 0)
M  V30 END SGROUP
M  V30 END CTAB
M  END
>  <BIGSMILES_BRACKET_RECORDS_JSON>
{
  "records": [
    {
      "id": 0,
      "bracket_kind": "backbone",
      "pairing_id": "F2/fragments[0]",
      "group_id": "$a:2",
      "ru_midpoint": [
        3.3823836254460633,
        -1.387824433114619
      ],
      "bond_midpoint": [
        2.0833502283293583,
        -1.3378532154795817
      ],
      "orientation_vector": [
        0.0,
        -1.0
      ],
      "half_bracket_size": 0.5000159978427487,
      "bond": [
        11,
        12
      ],
      "fragment": "F2",
      "backbone": true,
      "suspended_anchor_atom": null,
      "suspended_reason": null,
      "source_label": "F2/fragments[0]",
      "marker_id": "0",
      "side": "left",
      "connection_group": "$a",
      "marker_type_index": 2
    },
    {
      "id": 1,
      "bracket_kind": "backbone",
      "pairing_id": "F2/fragments[0]",
      "group_id": "$a:2",
      "ru_midpoint": [
        3.3823836254460633,
        -1.387824433114619
      ],
      "bond_midpoint": [
        5.547427341127072,
        -1.3378344171130827
      ],
      "orientation_vector": [
        0.0,
        -1.0
      ],
      "half_bracket_size": 0.5000159978427487,
      "bond": [
        16,
        17
      ],
      "fragment": "F2",
      "backbone": true,
      "suspended_anchor_atom": null,
      "suspended_reason": null,
      "source_label": "F2/fragments[0]",
      "marker_id": "6",
      "side": "right",
      "connection_group": "$a",
      "marker_type_index": 2
    },
    {
      "id": 2,
      "bracket_kind": "backbone",
      "pairing_id": "F2/fragments[1]",
      "group_id": "$a:2",
      "ru_midpoint": [
        7.279437404536211,
        -1.3378923360267758
      ],
      "bond_midpoint": [
        5.547427341127072,
        -1.3378344171130827
      ],
      "orientation_vector": [
        0.0,
        -1.0
      ],
      "half_bracket_size": 0.5000159978427487,
      "bond": [
        16,
        17
      ],
      "fragment": "F2",
      "backbone": true,
      "suspended_anchor_atom": null,
      "suspended_reason": null,
      "source_label": "F2/fragments[1]",
      "marker_id": "0",
      "side": "left",
      "connection_group": "$a",
      "marker_type_index": 2
    },
    {
      "id": 3,
      "bracket_kind": "backbone",
      "pairing_id": "F2/fragments[1]",
      "group_id": "$a:2",
      "ru_midpoint": [
        7.279437404536211,
        -1.3378923360267758
      ],
      "bond_midpoint": [
        9.011475926574619,
        -1.3378923360267758
      ],
      "orientation_vector": [
        0.0,
        -1.0
      ],
      "half_bracket_size": 0.5000159978427487,
      "bond": [
        21,
        22
      ],
      "fragment": "F2",
      "backbone": true,
      "suspended_anchor_atom": null,
      "suspended_reason": null,
      "source_label": "F2/fragments[1]",
      "marker_id": "6",
      "side": "right",
      "connection_group": "$a",
      "marker_type_index": 2
    },
    {
      "id": 4,
      "bracket_kind": "backbone",
      "pairing_id": "F2/fragments[2]",
      "group_id": "$a:2",
      "ru_midpoint": [
        9.877482113538294,
        -1.3378344171130827
      ],
      "bond_midpoint": [
        9.011475926574619,
        -1.3378923360267758
      ],
      "orientation_vector": [
        0.0,
        1.0
      ],
      "half_bracket_size": 0.5000159978427487,
      "bond": [
        21,
        22
      ],
      "fragment": "F2",
      "backbone": true,
      "suspended_anchor_atom": null,
      "suspended_reason": null,
      "source_label": "F2/fragments[2]",
      "marker_id": "0",
      "side": "left",
      "connection_group": "$a",
      "marker_type_index": 2
    },
    {
      "id": 5,
      "bracket_kind": "backbone",
      "pairing_id": "F2/fragments[2]",
      "group_id": "$a:2",
      "ru_midpoint": [
        9.877482113538294,
        -1.3378344171130827
      ],
      "bond_midpoint": [
        10.882388923764449,
        -1.3378344171130827
      ],
      "orientation_vector": [
        0.0,
        1.0
      ],
      "half_bracket_size": 0.5000159978427487,
      "bond": [
        23,
        27
      ],
      "fragment": "F2",
      "backbone": true,
      "suspended_anchor_atom": null,
      "suspended_reason": null,
      "source_label": "F2/fragments[2]",
      "marker_id": "6",
      "side": "right",
      "connection_group": "$a",
      "marker_type_index": 2
    },
    {
      "id": 6,
      "bracket_kind": "backbone",
      "pairing_id": "F2/fragments[3]",
      "group_id": "$a:2",
      "ru_midpoint": [
        12.320340532029846,
        -1.2545177237771892
      ],
      "bond_midpoint": [
        10.882388923764449,
        -1.3378344171130827
      ],
      "orientation_vector": [
        0.0,
        1.0
      ],
      "half_bracket_size": 0.5000159978427487,
      "bond": [
        23,
        27
      ],
      "fragment": "F2",
      "backbone": true,
      "suspended_anchor_atom": null,
      "suspended_reason": null,
      "source_label": "F2/fragments[3]",
      "marker_id": "0",
      "side": "left",
      "connection_group": "$a",
      "marker_type_index": 2
    },
    {
      "id": 7,
      "bracket_kind": "backbone",
      "pairing_id": "F2/fragments[3]",
      "group_id": "$a:2",
      "ru_midpoint": [
        12.320340532029846,
        -1.2545177237771892
      ],
      "bond_midpoint": [
        12.753348125469522,
        -1.3378424151317403
      ],
      "orientation_vector": [
        0.0,
        1.0
      ],
      "half_bracket_size": 0.5000159978427487,
      "bond": [
        4,
        28
      ],
      "fragment": "F2",
      "backbone": true,
      "suspended_anchor_atom": null,
      "suspended_reason": null,
      "source_label": "F2/fragments[3]",
      "marker_id": "6",
      "side": "right",
      "connection_group": "$a",
      "marker_type_index": 2
    },
    {
      "id": 8,
      "bracket_kind": "backbone",
      "pairing_id": "F2/connected",
      "group_id": "$overall",
      "ru_midpoint": [
        7.338975254895805,
        -1.337850965374138
      ],
      "bond_midpoint": [
        2.0833502283293583,
        -1.3378532154795817
      ],
      "orientation_vector": [
        0.0,
        -1.0
      ],
      "half_bracket_size": 1.5000406575386986,
      "bond": [
        11,
        12
      ],
      "fragment": "F2",
      "backbone": true,
      "suspended_anchor_atom": null,
      "suspended_reason": null,
      "source_label": "F2/connected",
      "marker_id": "connected-overall-left",
      "side": "left",
      "connection_group": "$overall",
      "marker_type_index": null
    },
    {
      "id": 9,
      "bracket_kind": "backbone",
      "pairing_id": "F2/connected",
      "group_id": "$overall",
      "ru_midpoint": [
        7.338975254895805,
        -1.337850965374138
      ],
      "bond_midpoint": [
        12.753348125469522,
        -1.3378424151317403
      ],
      "orientation_vector": [
        0.0,
        -1.0
      ],
      "half_bracket_size": 1.5000406575386986,
      "bond": [
        4,
        28
      ],
      "fragment": "F2",
      "backbone": true,
      "suspended_anchor_atom": null,
      "suspended_reason": null,
      "source_label": "F2/connected",
      "marker_id": "connected-overall-right",
      "side": "right",
      "connection_group": "$overall",
      "marker_type_index": null
    },
    {
      "id": 10,
      "bracket_kind": "backbone",
      "pairing_id": "F1/fragments[0]",
      "group_id": "<1:3",
      "ru_midpoint": [
        1.2172908829541822,
        -1.3378140939817575
      ],
      "bond_midpoint": [
        0.3512537418030335,
        -1.3378060941097532
      ],
      "orientation_vector": [
        0.0,
        -1.0
      ],
      "half_bracket_size": 0.5000159997440081,
      "bond": [
        1,
        8
      ],
      "fragment": "F1",
      "backbone": true,
      "suspended_anchor_atom": null,
      "suspended_reason": null,
      "source_label": "F1/fragments[0]",
      "marker_id": "0",
      "side": "left",
      "connection_group": "<1",
      "marker_type_index": 3
    },
    {
      "id": 11,
      "bracket_kind": "backbone",
      "pairing_id": "F1/fragments[0]",
      "group_id": ">1:4",
      "ru_midpoint": [
        1.2172908829541822,
        -1.3378140939817575
      ],
      "bond_midpoint": [
        2.0833502283293583,
        -1.3378532154795817
      ],
      "orientation_vector": [
        0.0,
        -1.0
      ],
      "half_bracket_size": 0.5000159997440081,
      "bond": [
        11,
        12
      ],
      "fragment": "F1",
      "backbone": true,
      "suspended_anchor_atom": null,
      "suspended_reason": null,
      "source_label": "F1/fragments[0]",
      "marker_id": "5",
      "side": "right",
      "connection_group": ">1",
      "marker_type_index": 4
    }
  ]
}
