
     RDKit          2D

  0  0  0  0  0  0  0  0  0  0999 V3000
M  V30 BEGIN CTAB
M  V30 COUNTS 33 34 3 0 0
M  V30 BEGIN ATOM
M  V30 1 H -5.172629 0.758831 0.000000 0
M  V30 2 C -2.574714 1.258881 0.000000 0
M  V30 3 C -2.574714 2.258881 0.000000 0
M  V30 4 C -2.574714 0.258881 0.000000 0
M  V30 5 C -1.708652 0.758881 0.000000 0
M  V30 6 O -1.708650 -0.241119 0.000000 0
M  V30 7 O -0.842598 1.258881 0.000000 0
M  V30 8 C 2.621210 1.258935 0.000000 0
M  V30 9 O 2.621236 2.258935 0.000000 0
M  V30 10 C 3.487156 0.758934 0.000000 0
M  V30 11 C 3.487156 1.758934 0.000000 0
M  V30 12 C 4.353095 1.258935 0.000000 0
M  V30 13 C -4.306670 1.258838 0.000000 0
M  V30 14 C -3.440710 0.758831 0.000000 0
M  V30 15 C -3.440710 -0.241171 0.000000 0
M  V30 16 C -4.306912 -0.741105 0.000000 0
M  V30 17 C -4.306712 -1.741106 0.000000 0
M  V30 18 C -3.440910 -2.241176 0.000000 0
M  V30 19 C -2.574709 -1.741242 0.000000 0
M  V30 20 C -2.574909 -0.741241 0.000000 0
M  V30 21 C 0.023379 0.758797 0.000000 0
M  V30 22 C 0.889375 1.258897 0.000000 0
M  V30 23 O 1.755264 0.758797 0.000000 0
M  V30 24 H 3.487156 -0.241066 0.000000 0
M  V30 25 H 3.987205 -2.839043 0.000000 0
M  V30 26 C 3.987162 -1.107087 0.000000 0
M  V30 27 C 3.487155 -1.973047 0.000000 0
M  V30 28 C 2.487153 -1.973047 0.000000 0
M  V30 29 C 1.987220 -1.106845 0.000000 0
M  V30 30 C 0.987218 -1.107045 0.000000 0
M  V30 31 C 0.487149 -1.972847 0.000000 0
M  V30 32 C 0.987082 -2.839048 0.000000 0
M  V30 33 C 1.987084 -2.838848 0.000000 0
M  V30 END ATOM
M  V30 BEGIN BOND
M  V30 1 1 2 3
M  V30 2 1 2 4
M  V30 3 1 2 5
M  V30 4 2 5 6
M  V30 5 1 5 7
M  V30 6 2 8 9
M  V30 7 1 8 10
M  V30 8 1 10 11
M  V30 9 1 10 12
M  V30 10 1 13 14
M  V30 11 1 14 15
M  V30 12 2 15 16
M  V30 13 1 16 17
M  V30 14 2 17 18
M  V30 15 1 18 19
M  V30 16 2 19 20
M  V30 17 1 20 15
M  V30 18 1 1 13
M  V30 19 1 2 14
M  V30 20 1 21 22
M  V30 21 1 22 23
M  V30 22 1 7 21
M  V30 23 1 8 23
M  V30 24 1 26 27
M  V30 25 1 27 28
M  V30 26 2 28 29
M  V30 27 1 29 30
M  V30 28 2 30 31
M  V30 29 1 31 32
M  V30 30 2 32 33
M  V30 31 1 33 28
M  V30 32 1 24 26
M  V30 33 1 25 27
M  V30 34 1 10 24
M  V30 END BOND
M  V30 BEGIN SGROUP
M  V30 1 SRU 0 ATOMS=(4 24 25 26 27) CBONDS=(2 32 33) -
M  V30 BRKXYZ=(9 4.2372 -0.6741 0 3.2372 -0.6741 0 0 0 0) BRKXYZ=(9 4.2372 -2.-
M  V30 4060 0 3.2372 -2.4060 0 0 0 0)
M  V30 2 SRU 0 ATOMS=(4 7 8 21 23) CBONDS=(2 22 23) -
M  V30 BRKXYZ=(9 -0.4096 1.5089 0 -0.4096 0.5087 0 0 0 0) BRKXYZ=(9 2.1882 1.5-
M  V30 090 0 2.1882 0.5088 0 0 0 0)
M  V30 3 SRU 0 ATOMS=(4 1 2 13 14) CBONDS=(2 18 19) -
M  V30 BRKXYZ=(9 -4.7396 1.5088 0 -4.7396 0.5088 0 0 0 0) BRKXYZ=(9 -3.0077 1.-
M  V30 5089 0 -3.0077 0.5088 0 0 0 0)
M  V30 END SGROUP
M  V30 END CTAB
M  END
>  <BIGSMILES_BRACKET_RECORDS_JSON>
{
  "records": [
    {
      "id": 0,
      "bracket_kind": "backbone",
      "pairing_id": "F4/fragments[0]",
      "group_id": "$a:2",
      "ru_midpoint": [
        3.737158805487248,
        -1.5400414979060923
      ],
      "bond_midpoint": [
        3.737159305492807,
        -0.674076458306432
      ],
      "orientation_vector": [
        1.0,
        0.0
      ],
      "half_bracket_size": 0.5000070589092322,
      "bond": [
        23,
        25
      ],
      "fragment": "F4",
      "backbone": true,
      "suspended_anchor_atom": null,
      "suspended_reason": null,
      "source_label": "F4/fragments[0]",
      "marker_id": "0",
      "side": "left",
      "connection_group": "$a",
      "marker_type_index": 2
    },
    {
      "id": 1,
      "bracket_kind": "backbone",
      "pairing_id": "F4/fragments[0]",
      "group_id": "$a:2",
      "ru_midpoint": [
        3.737158805487248,
        -1.5400414979060923
      ],
      "bond_midpoint": [
        3.7371803635797063,
        -2.4060447382425987
      ],
      "orientation_vector": [
        1.0,
        0.0
      ],
      "half_bracket_size": 0.5000070589092322,
      "bond": [
        24,
        26
      ],
      "fragment": "F4",
      "backbone": true,
      "suspended_anchor_atom": null,
      "suspended_reason": null,
      "source_label": "F4/fragments[0]",
      "marker_id": "9",
      "side": "right",
      "connection_group": "$a",
      "marker_type_index": 2
    },
    {
      "id": 2,
      "bracket_kind": "backbone",
      "pairing_id": "F2/fragments[0]",
      "group_id": "<1:3",
      "ru_midpoint": [
        0.8893072969282749,
        1.0588569758929252
      ],
      "bond_midpoint": [
        -0.4096095273566724,
        1.0088389586794198
      ],
      "orientation_vector": [
        0.0,
        1.0
      ],
      "half_bracket_size": 0.5001001599500253,
      "bond": [
        6,
        20
      ],
      "fragment": "F2",
      "backbone": true,
      "suspended_anchor_atom": null,
      "suspended_reason": null,
      "source_label": "F2/fragments[0]",
      "marker_id": "0",
      "side": "left",
      "connection_group": "<1",
      "marker_type_index": 3
    },
    {
      "id": 3,
      "bracket_kind": "backbone",
      "pairing_id": "F2/fragments[0]",
      "group_id": ">1:4",
      "ru_midpoint": [
        0.8893072969282749,
        1.0588569758929252
      ],
      "bond_midpoint": [
        2.188236724540837,
        1.0088657657852673
      ],
      "orientation_vector": [
        0.0,
        1.0
      ],
      "half_bracket_size": 0.5001001599500253,
      "bond": [
        7,
        22
      ],
      "fragment": "F2",
      "backbone": true,
      "suspended_anchor_atom": null,
      "suspended_reason": null,
      "source_label": "F2/fragments[0]",
      "marker_id": "4",
      "side": "right",
      "connection_group": ">1",
      "marker_type_index": 4
    },
    {
      "id": 4,
      "bracket_kind": "backbone",
      "pairing_id": "F1/fragments[0]",
      "group_id": "$a:2",
      "ru_midpoint": [
        -3.8736840419338288,
        1.0088338917908384
      ],
      "bond_midpoint": [
        -4.739649081533489,
        1.0088343917963971
      ],
      "orientation_vector": [
        0.0,
        1.0
      ],
      "half_bracket_size": 0.5000070589092322,
      "bond": [
        0,
        12
      ],
      "fragment": "F1",
      "backbone": true,
      "suspended_anchor_atom": null,
      "suspended_reason": null,
      "source_label": "F1/fragments[0]",
      "marker_id": "0",
      "side": "left",
      "connection_group": "$a",
      "marker_type_index": 2
    },
    {
      "id": 5,
      "bracket_kind": "backbone",
      "pairing_id": "F1/fragments[0]",
      "group_id": "$a:2",
      "ru_midpoint": [
        -3.8736840419338288,
        1.0088338917908384
      ],
      "bond_midpoint": [
        -3.007712199177096,
        1.0088559498888552
      ],
      "orientation_vector": [
        0.0,
        1.0
      ],
      "half_bracket_size": 0.5000070589092322,
      "bond": [
        1,
        13
      ],
      "fragment": "F1",
      "backbone": true,
      "suspended_anchor_atom": null,
      "suspended_reason": null,
      "source_label": "F1/fragments[0]",
      "marker_id": "9",
      "side": "right",
      "connection_group": "$a",
      "marker_type_index": 2
    }
  ]
}
