
     RDKit          2D

  0  0  0  0  0  0  0  0  0  0999 V3000
M  V30 BEGIN CTAB
M  V30 COUNTS 34 35 5 0 0
M  V30 BEGIN ATOM
M  V30 1 H -7.271001 -0.470009 0.000000 0
M  V30 2 S 2.074686 0.029970 0.000000 0
M  V30 3 C 2.940806 -0.469930 0.000000 0
M  V30 4 C 3.940806 -0.469930 0.000000 0
M  V30 5 C 4.440811 -1.335964 0.000000 0
M  V30 6 C 5.440822 -1.335964 0.000000 0
M  V30 7 C 5.940827 -0.469930 0.000000 0
M  V30 8 C 5.440822 0.396104 0.000000 0
M  V30 9 C 4.440811 0.396104 0.000000 0
M  V30 10 S 2.940806 -1.469930 0.000000 0
M  V30 11 C -6.404943 0.029965 0.000000 0
M  V30 12 C -5.538886 -0.470009 0.000000 0
M  V30 13 C -5.538886 -1.470009 0.000000 0
M  V30 14 O -5.538940 -4.934278 0.000000 0
M  V30 15 C -6.038840 -5.800274 0.000000 0
M  V30 16 O -6.038824 -2.336070 0.000000 0
M  V30 17 C -5.538924 -3.202074 0.000000 0
M  V30 18 C -6.038824 -4.068186 0.000000 0
M  V30 19 C -3.570111 0.029965 0.000000 0
M  V30 20 C -3.570111 -0.970050 0.000000 0
M  V30 21 O -2.704119 -1.470113 0.000000 0
M  V30 22 O -4.436102 -1.470001 0.000000 0
M  V30 23 C -1.054639 -0.470079 0.000000 0
M  V30 24 C -1.054639 -1.470093 0.000000 0
M  V30 25 O -1.920630 -1.970044 0.000000 0
M  V30 26 O -0.188647 -1.970156 0.000000 0
M  V30 27 C 0.342731 0.029927 0.000000 0
M  V30 28 C 1.208690 -0.470080 0.000000 0
M  V30 29 C 1.208690 -1.470082 0.000000 0
M  V30 30 C 0.342488 -1.970015 0.000000 0
M  V30 31 C 0.342688 -2.970017 0.000000 0
M  V30 32 C 1.208490 -3.470086 0.000000 0
M  V30 33 C 2.074692 -2.970153 0.000000 0
M  V30 34 C 2.074492 -1.970151 0.000000 0
M  V30 END ATOM
M  V30 BEGIN BOND
M  V30 1 1 2 3
M  V30 2 1 3 4
M  V30 3 2 4 5
M  V30 4 1 5 6
M  V30 5 2 6 7
M  V30 6 1 7 8
M  V30 7 2 8 9
M  V30 8 2 3 10
M  V30 9 1 9 4
M  V30 10 1 11 12
M  V30 11 1 14 15
M  V30 12 1 16 17
M  V30 13 1 17 18
M  V30 14 1 13 16
M  V30 15 1 14 18
M  V30 16 1 12 13
M  V30 17 1 19 20
M  V30 18 2 20 21
M  V30 19 1 20 22
M  V30 20 1 19 23
M  V30 21 1 23 24
M  V30 22 1 24 25
M  V30 23 2 24 26
M  V30 24 1 12 19
M  V30 25 1 1 11
M  V30 26 1 27 28
M  V30 27 1 28 29
M  V30 28 2 29 30
M  V30 29 1 30 31
M  V30 30 2 31 32
M  V30 31 1 32 33
M  V30 32 2 33 34
M  V30 33 1 34 29
M  V30 34 1 23 27
M  V30 35 1 2 28
M  V30 END BOND
M  V30 BEGIN SGROUP
M  V30 1 SRU 0 ATOMS=(4 13 14 16 18) CBONDS=(2 14 15) -
M  V30 BRKXYZ=(9 -5.2890 -1.9030 0 -6.2888 -1.9030 0 0 0 0) BRKXYZ=(9 -5.2890 -
M  V30 -4.5012 0 -6.2888 -4.5012 0 0 0 0)
M  V30 2 SRU 0 ATOMS=(4 1 11 12 19) CBONDS=(2 24 25) -
M  V30 BRKXYZ=(9 -6.8380 0.2800 0 -6.8380 -0.7200 0 0 0 0) BRKXYZ=(9 -4.5545 0-
M  V30 .2800 0 -4.5545 -0.7200 0 0 0 0)
M  V30 3 SRU 0 ATOMS=(4 2 23 27 28) CBONDS=(2 34 35) -
M  V30 BRKXYZ=(9 -0.3560 0.2799 0 -0.3560 -0.7201 0 0 0 0) BRKXYZ=(9 1.6417 0.-
M  V30 2800 0 1.6417 -0.7201 0 0 0 0)
M  V30 4 SRU 0 ATOMS=(4 12 19 23 27) CBONDS=(2 24 34) -
M  V30 BRKXYZ=(9 -4.5545 0.2800 0 -4.5545 -0.7201 0 0 0 0) BRKXYZ=(9 -0.3560 0-
M  V30 .2800 0 -0.3560 -0.7201 0 0 0 0)
M  V30 5 SRU 0 ATOMS=(4 1 11 23 27) CBONDS=(2 25 34) -
M  V30 BRKXYZ=(9 -6.8380 5.6102 0 -6.8380 -6.0503 0 0 0 0) BRKXYZ=(9 -0.3560 5-
M  V30 .6102 0 -0.3560 -6.0503 0 0 0 0)
M  V30 END SGROUP
M  V30 END CTAB
M  END
>  <BIGSMILES_BRACKET_RECORDS_JSON>
{
  "records": [
    {
      "id": 0,
      "bracket_kind": "backbone",
      "pairing_id": "F4/fragments[0]",
      "group_id": "<1:3",
      "ru_midpoint": [
        -5.872190539761668,
        -3.2021099555207684
      ],
      "bond_midpoint": [
        -5.7888550480592755,
        -1.9030392105246434
      ],
      "orientation_vector": [
        1.0,
        0.0
      ],
      "half_bracket_size": 0.49990016001536197,
      "bond": [
        12,
        15
      ],
      "fragment": "F4",
      "backbone": true,
      "suspended_anchor_atom": null,
      "suspended_reason": null,
      "source_label": "F4/fragments[0]",
      "marker_id": "0",
      "side": "left",
      "connection_group": "<1",
      "marker_type_index": 3
    },
    {
      "id": 1,
      "bracket_kind": "backbone",
      "pairing_id": "F4/fragments[0]",
      "group_id": ">1:4",
      "ru_midpoint": [
        -5.872190539761668,
        -3.2021099555207684
      ],
      "bond_midpoint": [
        -5.7888818444444325,
        -4.501231885138981
      ],
      "orientation_vector": [
        1.0,
        0.0
      ],
      "half_bracket_size": 0.49990016001536197,
      "bond": [
        13,
        17
      ],
      "fragment": "F4",
      "backbone": true,
      "suspended_anchor_atom": null,
      "suspended_reason": null,
      "source_label": "F4/fragments[0]",
      "marker_id": "4",
      "side": "right",
      "connection_group": ">1",
      "marker_type_index": 4
    },
    {
      "id": 2,
      "bracket_kind": "backbone",
      "pairing_id": "F1-0/subMolblock",
      "group_id": "$a:2",
      "ru_midpoint": [
        -5.9719226637174625,
        -0.22002251240344906
      ],
      "bond_midpoint": [
        -6.837972061807,
        -0.2200220124318898
      ],
      "orientation_vector": [
        0.0,
        1.0
      ],
      "half_bracket_size": 0.4999730592252327,
      "bond": [
        0,
        10
      ],
      "fragment": "F1-0",
      "backbone": true,
      "suspended_anchor_atom": null,
      "suspended_reason": null,
      "source_label": "F1-0/subMolblock",
      "marker_id": "0",
      "side": "left",
      "connection_group": "$a",
      "marker_type_index": 2
    },
    {
      "id": 3,
      "bracket_kind": "backbone",
      "pairing_id": "F1-0/subMolblock",
      "group_id": "$a:2",
      "ru_midpoint": [
        -5.9719226637174625,
        -0.22002251240344906
      ],
      "bond_midpoint": [
        -4.554498503440451,
        -0.2200220124318898
      ],
      "orientation_vector": [
        0.0,
        1.0
      ],
      "half_bracket_size": 0.4999730592252327,
      "bond": [
        11,
        18
      ],
      "fragment": "F1-0",
      "backbone": true,
      "suspended_anchor_atom": null,
      "suspended_reason": null,
      "source_label": "F1-0/subMolblock",
      "marker_id": "4",
      "side": "right",
      "connection_group": "$a",
      "marker_type_index": 2
    },
    {
      "id": 4,
      "bracket_kind": "backbone",
      "pairing_id": "F2/fragments[0]",
      "group_id": "$a:2",
      "ru_midpoint": [
        0.7757104661451064,
        -0.22007633577219043
      ],
      "bond_midpoint": [
        -0.35595387004984325,
        -0.22007583576663153
      ],
      "orientation_vector": [
        0.0,
        1.0
      ],
      "half_bracket_size": 0.5000070589092322,
      "bond": [
        22,
        26
      ],
      "fragment": "F2",
      "backbone": true,
      "suspended_anchor_atom": null,
      "suspended_reason": null,
      "source_label": "F2/fragments[0]",
      "marker_id": "0",
      "side": "left",
      "connection_group": "$a",
      "marker_type_index": 2
    },
    {
      "id": 5,
      "bracket_kind": "backbone",
      "pairing_id": "F2/fragments[0]",
      "group_id": "$a:2",
      "ru_midpoint": [
        0.7757104661451064,
        -0.22007633577219043
      ],
      "bond_midpoint": [
        1.6416882380113242,
        -0.22005477767973247
      ],
      "orientation_vector": [
        0.0,
        1.0
      ],
      "half_bracket_size": 0.5000070589092322,
      "bond": [
        1,
        27
      ],
      "fragment": "F2",
      "backbone": true,
      "suspended_anchor_atom": null,
      "suspended_reason": null,
      "source_label": "F2/fragments[0]",
      "marker_id": "9",
      "side": "right",
      "connection_group": "$a",
      "marker_type_index": 2
    },
    {
      "id": 6,
      "bracket_kind": "backbone",
      "pairing_id": "F1/fragments[1]",
      "group_id": "$a:2",
      "ru_midpoint": [
        -2.312374744097755,
        -0.22005717401748093
      ],
      "bond_midpoint": [
        -4.554498503440451,
        -0.2200220124318898
      ],
      "orientation_vector": [
        0.0,
        1.0
      ],
      "half_bracket_size": 0.500043382396415,
      "bond": [
        11,
        18
      ],
      "fragment": "F1",
      "backbone": true,
      "suspended_anchor_atom": null,
      "suspended_reason": null,
      "source_label": "F1/fragments[1]",
      "marker_id": "0",
      "side": "left",
      "connection_group": "$a",
      "marker_type_index": 2
    },
    {
      "id": 7,
      "bracket_kind": "backbone",
      "pairing_id": "F1/fragments[1]",
      "group_id": "$a:2",
      "ru_midpoint": [
        -2.312374744097755,
        -0.22005717401748093
      ],
      "bond_midpoint": [
        -0.35595387004984325,
        -0.22007583576663153
      ],
      "orientation_vector": [
        0.0,
        1.0
      ],
      "half_bracket_size": 0.500043382396415,
      "bond": [
        22,
        26
      ],
      "fragment": "F1",
      "backbone": true,
      "suspended_anchor_atom": null,
      "suspended_reason": null,
      "source_label": "F1/fragments[1]",
      "marker_id": "9",
      "side": "right",
      "connection_group": "$a",
      "marker_type_index": 2
    },
    {
      "id": 8,
      "bracket_kind": "backbone",
      "pairing_id": "F1/connected",
      "group_id": "$overall",
      "ru_midpoint": [
        -5.130189519612725,
        -2.269105402961238
      ],
      "bond_midpoint": [
        -6.837972061807,
        -0.2200220124318898
      ],
      "orientation_vector": [
        0.0,
        1.0
      ],
      "half_bracket_size": 5.830238744725715,
      "bond": [
        0,
        10
      ],
      "fragment": "F1",
      "backbone": true,
      "suspended_anchor_atom": null,
      "suspended_reason": null,
      "source_label": "F1/connected",
      "marker_id": "connected-overall-left",
      "side": "left",
      "connection_group": "$overall",
      "marker_type_index": null
    },
    {
      "id": 9,
      "bracket_kind": "backbone",
      "pairing_id": "F1/connected",
      "group_id": "$overall",
      "ru_midpoint": [
        -5.130189519612725,
        -2.269105402961238
      ],
      "bond_midpoint": [
        -0.35595387004984325,
        -0.22007583576663153
      ],
      "orientation_vector": [
        0.0,
        1.0
      ],
      "half_bracket_size": 5.830238744725715,
      "bond": [
        22,
        26
      ],
      "fragment": "F1",
      "backbone": true,
      "suspended_anchor_atom": null,
      "suspended_reason": null,
      "source_label": "F1/connected",
      "marker_id": "connected-overall-right",
      "side": "right",
      "connection_group": "$overall",
      "marker_type_index": null
    }
  ]
}
