
     RDKit          2D

  0  0  0  0  0  0  0  0  0  0999 V3000
M  V30 BEGIN CTAB
M  V30 COUNTS 32 33 4 0 0
M  V30 BEGIN ATOM
M  V30 1 H -4.536089 -0.719457 0.000000 0
M  V30 2 C -1.938149 -0.219322 0.000000 0
M  V30 3 H 4.401691 -0.219322 0.000000 0
M  V30 4 C -3.670093 -0.219356 0.000000 0
M  V30 5 C -2.804097 -0.719457 0.000000 0
M  V30 6 C -2.804097 0.280568 0.000000 0
M  V30 7 C -2.804097 -1.719489 0.000000 0
M  V30 8 O -3.670070 -2.219580 0.000000 0
M  V30 9 N -1.937951 -2.219329 0.000000 0
M  V30 10 C -1.937951 -3.219361 0.000000 0
M  V30 11 C -1.071805 -3.719201 0.000000 0
M  V30 12 C -2.803924 -3.719452 0.000000 0
M  V30 13 C 0.937730 -0.219322 0.000000 0
M  V30 14 C 0.937730 -1.219248 0.000000 0
M  V30 15 O 0.071827 -1.719347 0.000000 0
M  V30 16 C 0.071827 -2.719273 0.000000 0
M  V30 17 C -0.794075 -3.219372 0.000000 0
M  V30 18 C -0.793903 -4.219398 0.000000 0
M  V30 19 C 0.072173 -4.719325 0.000000 0
M  V30 20 C 0.938076 -4.219225 0.000000 0
M  V30 21 C 0.937903 -3.219199 0.000000 0
M  V30 22 C 1.803683 0.280691 0.000000 0
M  V30 23 C 2.669700 -0.219322 0.000000 0
M  V30 24 C 2.669700 0.780684 0.000000 0
M  V30 25 C 3.535695 0.280581 0.000000 0
M  V30 26 O 3.535695 1.280524 0.000000 0
M  V30 27 C 2.669908 1.780441 0.000000 0
M  V30 28 C 2.669982 2.780658 0.000000 0
M  V30 29 C 1.803922 3.280649 0.000000 0
M  V30 30 C 0.937861 2.780697 0.000000 0
M  V30 31 C 0.937688 1.780654 0.000000 0
M  V30 32 C 1.803748 1.280663 0.000000 0
M  V30 END ATOM
M  V30 BEGIN BOND
M  V30 1 1 4 5
M  V30 2 1 5 6
M  V30 3 1 5 7
M  V30 4 2 7 8
M  V30 5 1 7 9
M  V30 6 1 9 10
M  V30 7 1 10 11
M  V30 8 1 10 12
M  V30 9 1 1 4
M  V30 10 1 2 5
M  V30 11 2 13 14 CFG=2
M  V30 12 1 14 15
M  V30 13 1 15 16
M  V30 14 2 16 17
M  V30 15 1 17 18
M  V30 16 2 18 19
M  V30 17 1 19 20
M  V30 18 2 20 21
M  V30 19 1 13 22
M  V30 20 1 21 16
M  V30 21 2 23 24
M  V30 22 1 23 25
M  V30 23 1 25 26
M  V30 24 1 26 27
M  V30 25 2 27 28
M  V30 26 1 28 29
M  V30 27 2 29 30
M  V30 28 1 30 31
M  V30 29 2 31 32
M  V30 30 1 32 27
M  V30 31 1 22 23
M  V30 32 1 2 13
M  V30 33 1 3 25
M  V30 END BOND
M  V30 BEGIN SGROUP
M  V30 1 SRU 0 ATOMS=(4 2 13 22 23) CBONDS=(2 31 32) -
M  V30 BRKXYZ=(9 -0.5002 0.2807 0 -0.5002 -0.7193 0 0 0 0) BRKXYZ=(9 2.2367 0.-
M  V30 5307 0 2.2367 -0.4693 0 0 0 0)
M  V30 2 SRU 0 ATOMS=(4 3 22 23 25) CBONDS=(2 31 33) -
M  V30 BRKXYZ=(9 2.2367 -0.4693 0 2.2367 0.5307 0 0 0 0) BRKXYZ=(9 3.9687 -0.4-
M  V30 694 0 3.9687 0.5306 0 0 0 0)
M  V30 3 SRU 0 ATOMS=(4 2 3 13 25) CBONDS=(2 32 33) -
M  V30 BRKXYZ=(9 -0.5002 7.7807 0 -0.5002 -8.2193 0 0 0 0) BRKXYZ=(9 3.9687 8.-
M  V30 0306 0 3.9687 -7.9693 0 0 0 0)
M  V30 4 SRU 0 ATOMS=(4 1 2 4 5) CBONDS=(2 9 10) -
M  V30 BRKXYZ=(9 -4.1031 0.0307 0 -4.1031 -0.9695 0 0 0 0) BRKXYZ=(9 -2.3711 0-
M  V30 .0307 0 -2.3711 -0.9695 0 0 0 0)
M  V30 END SGROUP
M  V30 END CTAB
M  END
>  <BIGSMILES_BRACKET_RECORDS_JSON>
{
  "records": [
    {
      "id": 0,
      "bracket_kind": "backbone",
      "pairing_id": "F2/fragments[0]",
      "group_id": "$a:2",
      "ru_midpoint": [
        1.370706170126892,
        0.030684160283299233
      ],
      "bond_midpoint": [
        -0.500209642433757,
        -0.21932232397231344
      ],
      "orientation_vector": [
        0.0,
        1.0
      ],
      "half_bracket_size": 0.5000129685112256,
      "bond": [
        1,
        12
      ],
      "fragment": "F2",
      "backbone": true,
      "suspended_anchor_atom": null,
      "suspended_reason": null,
      "source_label": "F2/fragments[0]",
      "marker_id": "0",
      "side": "left",
      "connection_group": "$a",
      "marker_type_index": 2
    },
    {
      "id": 1,
      "bracket_kind": "backbone",
      "pairing_id": "F2/fragments[0]",
      "group_id": "$a:2",
      "ru_midpoint": [
        1.370706170126892,
        0.030684160283299233
      ],
      "bond_midpoint": [
        2.2366914877033026,
        0.030684160283299233
      ],
      "orientation_vector": [
        0.0,
        1.0
      ],
      "half_bracket_size": 0.5000129685112256,
      "bond": [
        21,
        22
      ],
      "fragment": "F2",
      "backbone": true,
      "suspended_anchor_atom": null,
      "suspended_reason": null,
      "source_label": "F2/fragments[0]",
      "marker_id": "11",
      "side": "right",
      "connection_group": "$a",
      "marker_type_index": 2
    },
    {
      "id": 2,
      "bracket_kind": "backbone",
      "pairing_id": "F2/fragments[1]",
      "group_id": "$a:2",
      "ru_midpoint": [
        3.1026539095472283,
        0.030627676620402028
      ],
      "bond_midpoint": [
        2.2366914877033026,
        0.030684160283299233
      ],
      "orientation_vector": [
        0.0,
        -1.0
      ],
      "half_bracket_size": 0.5000129685112256,
      "bond": [
        21,
        22
      ],
      "fragment": "F2",
      "backbone": true,
      "suspended_anchor_atom": null,
      "suspended_reason": null,
      "source_label": "F2/fragments[1]",
      "marker_id": "0",
      "side": "left",
      "connection_group": "$a",
      "marker_type_index": 2
    },
    {
      "id": 3,
      "bracket_kind": "backbone",
      "pairing_id": "F2/fragments[1]",
      "group_id": "$a:2",
      "ru_midpoint": [
        3.1026539095472283,
        0.030627676620402028
      ],
      "bond_midpoint": [
        3.968692989221041,
        0.03062929629115807
      ],
      "orientation_vector": [
        0.0,
        -1.0
      ],
      "half_bracket_size": 0.5000129685112256,
      "bond": [
        2,
        24
      ],
      "fragment": "F2",
      "backbone": true,
      "suspended_anchor_atom": null,
      "suspended_reason": null,
      "source_label": "F2/fragments[1]",
      "marker_id": "11",
      "side": "right",
      "connection_group": "$a",
      "marker_type_index": 2
    },
    {
      "id": 4,
      "bracket_kind": "backbone",
      "pairing_id": "F2/connected",
      "group_id": "$overall",
      "ru_midpoint": [
        2.236658014459146,
        0.03065510861647261
      ],
      "bond_midpoint": [
        -0.500209642433757,
        -0.21932232397231344
      ],
      "orientation_vector": [
        0.0,
        1.0
      ],
      "half_bracket_size": 7.9999737018765416,
      "bond": [
        1,
        12
      ],
      "fragment": "F2",
      "backbone": true,
      "suspended_anchor_atom": null,
      "suspended_reason": null,
      "source_label": "F2/connected",
      "marker_id": "connected-overall-left",
      "side": "left",
      "connection_group": "$overall",
      "marker_type_index": null
    },
    {
      "id": 5,
      "bracket_kind": "backbone",
      "pairing_id": "F2/connected",
      "group_id": "$overall",
      "ru_midpoint": [
        2.236658014459146,
        0.03065510861647261
      ],
      "bond_midpoint": [
        3.968692989221041,
        0.03062929629115807
      ],
      "orientation_vector": [
        0.0,
        1.0
      ],
      "half_bracket_size": 7.9999737018765416,
      "bond": [
        2,
        24
      ],
      "fragment": "F2",
      "backbone": true,
      "suspended_anchor_atom": null,
      "suspended_reason": null,
      "source_label": "F2/connected",
      "marker_id": "connected-overall-right",
      "side": "right",
      "connection_group": "$overall",
      "marker_type_index": null
    },
    {
      "id": 6,
      "bracket_kind": "backbone",
      "pairing_id": "F1/fragments[0]",
      "group_id": "$a:2",
      "ru_midpoint": [
        -3.237104621871898,
        -0.4694144854741158
      ],
      "bond_midpoint": [
        -4.103091049374505,
        -0.46940648425561293
      ],
      "orientation_vector": [
        0.0,
        1.0
      ],
      "half_bracket_size": 0.500100159950025,
      "bond": [
        0,
        3
      ],
      "fragment": "F1",
      "backbone": true,
      "suspended_anchor_atom": null,
      "suspended_reason": null,
      "source_label": "F1/fragments[0]",
      "marker_id": "0",
      "side": "left",
      "connection_group": "$a",
      "marker_type_index": 2
    },
    {
      "id": 7,
      "bracket_kind": "backbone",
      "pairing_id": "F1/fragments[0]",
      "group_id": "$a:2",
      "ru_midpoint": [
        -3.237104621871898,
        -0.4694144854741158
      ],
      "bond_midpoint": [
        -2.3711230386896465,
        -0.46938944410146943
      ],
      "orientation_vector": [
        0.0,
        1.0
      ],
      "half_bracket_size": 0.500100159950025,
      "bond": [
        1,
        4
      ],
      "fragment": "F1",
      "backbone": true,
      "suspended_anchor_atom": null,
      "suspended_reason": null,
      "source_label": "F1/fragments[0]",
      "marker_id": "10",
      "side": "right",
      "connection_group": "$a",
      "marker_type_index": 2
    }
  ]
}
