
     RDKit          2D

  0  0  0  0  0  0  0  0  0  0999 V3000
M  V30 BEGIN CTAB
M  V30 COUNTS 17 16 4 0 0
M  V30 BEGIN ATOM
M  V30 1 H -4.036097 -0.448654 0.000000 0
M  V30 2 H 4.035670 0.051362 0.000000 0
M  V30 3 C -3.170168 0.051362 0.000000 0
M  V30 4 C -2.304238 -0.448654 0.000000 0
M  V30 5 C -1.438222 0.051362 0.000000 0
M  V30 6 C -1.438222 1.051386 0.000000 0
M  V30 7 C -0.572169 -0.448654 0.000000 0
M  V30 8 C 0.293847 0.051362 0.000000 0
M  V30 9 C 1.159844 -0.448538 0.000000 0
M  V30 10 C 1.159844 -1.448470 0.000000 0
M  V30 11 C 0.293957 -1.948561 0.000000 0
M  V30 12 C 2.025903 -1.948412 0.000000 0
M  V30 13 C 2.303661 0.051362 0.000000 0
M  V30 14 C 3.169665 -0.448538 0.000000 0
M  V30 15 C 3.169665 0.551386 0.000000 0
M  V30 16 C 3.169665 -1.448463 0.000000 0
M  V30 17 C 2.303773 -1.948557 0.000000 0
M  V30 END ATOM
M  V30 BEGIN BOND
M  V30 1 1 3 4
M  V30 2 2 4 5 CFG=2
M  V30 3 1 5 6
M  V30 4 1 5 7
M  V30 5 1 8 9
M  V30 6 1 9 10
M  V30 7 1 10 11
M  V30 8 2 10 12
M  V30 9 1 7 8
M  V30 10 1 13 14
M  V30 11 1 14 15
M  V30 12 1 14 16
M  V30 13 2 16 17
M  V30 14 1 9 13
M  V30 15 1 1 3
M  V30 16 1 2 14
M  V30 END BOND
M  V30 BEGIN SGROUP
M  V30 1 SRU 0 ATOMS=(4 1 3 7 8) CBONDS=(2 9 15) -
M  V30 BRKXYZ=(9 -3.6031 -0.6987 0 -3.6031 0.3014 0 0 0 0) BRKXYZ=(9 -0.1392 --
M  V30 0.6987 0 -0.1392 0.3014 0 0 0 0)
M  V30 2 SRU 0 ATOMS=(4 7 8 9 13) CBONDS=(2 9 14) -
M  V30 BRKXYZ=(9 -0.1392 0.3014 0 -0.1392 -0.6987 0 0 0 0) BRKXYZ=(9 1.7318 0.-
M  V30 3014 0 1.7318 -0.6986 0 0 0 0)
M  V30 3 SRU 0 ATOMS=(4 2 9 13 14) CBONDS=(2 14 16) -
M  V30 BRKXYZ=(9 1.7318 0.3014 0 1.7318 -0.6986 0 0 0 0) BRKXYZ=(9 3.6027 0.30-
M  V30 14 0 3.6027 -0.6986 0 0 0 0)
M  V30 4 SRU 0 ATOMS=(4 1 2 3 14) CBONDS=(2 15 16) -
M  V30 BRKXYZ=(9 -3.6031 -3.1986 0 -3.6031 2.8013 0 0 0 0) BRKXYZ=(9 3.6027 -3-
M  V30 .1985 0 3.6027 2.8014 0 0 0 0)
M  V30 END SGROUP
M  V30 END CTAB
M  END
>  <BIGSMILES_BRACKET_RECORDS_JSON>
{
  "records": [
    {
      "id": 0,
      "bracket_kind": "backbone",
      "pairing_id": "F1/fragments[0]",
      "group_id": "$a:2",
      "ru_midpoint": [
        -2.3041527299527895,
        -0.24864801491775002
      ],
      "bond_midpoint": [
        -3.603132387637086,
        -0.19864633513095442
      ],
      "orientation_vector": [
        0.0,
        -1.0
      ],
      "half_bracket_size": 0.5000159978427487,
      "bond": [
        0,
        2
      ],
      "fragment": "F1",
      "backbone": true,
      "suspended_anchor_atom": null,
      "suspended_reason": null,
      "source_label": "F1/fragments[0]",
      "marker_id": "0",
      "side": "left",
      "connection_group": "$a",
      "marker_type_index": 2
    },
    {
      "id": 1,
      "bracket_kind": "backbone",
      "pairing_id": "F1/fragments[0]",
      "group_id": "$a:2",
      "ru_midpoint": [
        -2.3041527299527895,
        -0.24864801491775002
      ],
      "bond_midpoint": [
        -0.13916065733224192,
        -0.1986463351309543
      ],
      "orientation_vector": [
        0.0,
        -1.0
      ],
      "half_bracket_size": 0.5000159978427487,
      "bond": [
        6,
        7
      ],
      "fragment": "F1",
      "backbone": true,
      "suspended_anchor_atom": null,
      "suspended_reason": null,
      "source_label": "F1/fragments[0]",
      "marker_id": "6",
      "side": "right",
      "connection_group": "$a",
      "marker_type_index": 2
    },
    {
      "id": 2,
      "bracket_kind": "backbone",
      "pairing_id": "F1/fragments[1]",
      "group_id": "$a:2",
      "ru_midpoint": [
        0.7268455296314329,
        -0.1985884162172611
      ],
      "bond_midpoint": [
        -0.13916065733224192,
        -0.1986463351309543
      ],
      "orientation_vector": [
        0.0,
        1.0
      ],
      "half_bracket_size": 0.5000159978427487,
      "bond": [
        6,
        7
      ],
      "fragment": "F1",
      "backbone": true,
      "suspended_anchor_atom": null,
      "suspended_reason": null,
      "source_label": "F1/fragments[1]",
      "marker_id": "0",
      "side": "left",
      "connection_group": "$a",
      "marker_type_index": 2
    },
    {
      "id": 3,
      "bracket_kind": "backbone",
      "pairing_id": "F1/fragments[1]",
      "group_id": "$a:2",
      "ru_midpoint": [
        0.7268455296314329,
        -0.1985884162172611
      ],
      "bond_midpoint": [
        1.7317523398575894,
        -0.1985884162172611
      ],
      "orientation_vector": [
        0.0,
        1.0
      ],
      "half_bracket_size": 0.5000159978427487,
      "bond": [
        8,
        12
      ],
      "fragment": "F1",
      "backbone": true,
      "suspended_anchor_atom": null,
      "suspended_reason": null,
      "source_label": "F1/fragments[1]",
      "marker_id": "6",
      "side": "right",
      "connection_group": "$a",
      "marker_type_index": 2
    },
    {
      "id": 4,
      "bracket_kind": "backbone",
      "pairing_id": "F1/fragments[2]",
      "group_id": "$a:2",
      "ru_midpoint": [
        3.169659991976234,
        -0.11526372486270986
      ],
      "bond_midpoint": [
        1.7317523398575894,
        -0.1985884162172611
      ],
      "orientation_vector": [
        0.0,
        1.0
      ],
      "half_bracket_size": 0.5000159978427487,
      "bond": [
        8,
        12
      ],
      "fragment": "F1",
      "backbone": true,
      "suspended_anchor_atom": null,
      "suspended_reason": null,
      "source_label": "F1/fragments[2]",
      "marker_id": "0",
      "side": "left",
      "connection_group": "$a",
      "marker_type_index": 2
    },
    {
      "id": 5,
      "bracket_kind": "backbone",
      "pairing_id": "F1/fragments[2]",
      "group_id": "$a:2",
      "ru_midpoint": [
        3.169659991976234,
        -0.11526372486270986
      ],
      "bond_midpoint": [
        3.6026675854159094,
        -0.1985884162172611
      ],
      "orientation_vector": [
        0.0,
        1.0
      ],
      "half_bracket_size": 0.5000159978427487,
      "bond": [
        1,
        13
      ],
      "fragment": "F1",
      "backbone": true,
      "suspended_anchor_atom": null,
      "suspended_reason": null,
      "source_label": "F1/fragments[2]",
      "marker_id": "6",
      "side": "right",
      "connection_group": "$a",
      "marker_type_index": 2
    },
    {
      "id": 6,
      "bracket_kind": "backbone",
      "pairing_id": "F1/connected",
      "group_id": "$overall",
      "ru_midpoint": [
        -0.05581829797413329,
        -0.1986152495493401
      ],
      "bond_midpoint": [
        -3.603132387637086,
        -0.19864633513095442
      ],
      "orientation_vector": [
        0.0,
        -1.0
      ],
      "half_bracket_size": 2.9999470747103514,
      "bond": [
        0,
        2
      ],
      "fragment": "F1",
      "backbone": true,
      "suspended_anchor_atom": null,
      "suspended_reason": null,
      "source_label": "F1/connected",
      "marker_id": "connected-overall-left",
      "side": "left",
      "connection_group": "$overall",
      "marker_type_index": null
    },
    {
      "id": 7,
      "bracket_kind": "backbone",
      "pairing_id": "F1/connected",
      "group_id": "$overall",
      "ru_midpoint": [
        -0.05581829797413329,
        -0.1986152495493401
      ],
      "bond_midpoint": [
        3.6026675854159094,
        -0.1985884162172611
      ],
      "orientation_vector": [
        0.0,
        -1.0
      ],
      "half_bracket_size": 2.9999470747103514,
      "bond": [
        1,
        13
      ],
      "fragment": "F1",
      "backbone": true,
      "suspended_anchor_atom": null,
      "suspended_reason": null,
      "source_label": "F1/connected",
      "marker_id": "connected-overall-right",
      "side": "right",
      "connection_group": "$overall",
      "marker_type_index": null
    }
  ]
}
