
     RDKit          2D

  0  0  0  0  0  0  0  0  0  0999 V3000
M  V30 BEGIN CTAB
M  V30 COUNTS 22 21 1 0 0
M  V30 BEGIN ATOM
M  V30 1 H -8.227618 -0.448600 0.000000 0
M  V30 2 H 8.226904 0.051400 0.000000 0
M  V30 3 O -7.361377 0.051400 0.000000 0
M  V30 4 C -6.495136 -0.448600 0.000000 0
M  V30 5 C -5.629058 0.051400 0.000000 0
M  V30 6 C -4.763017 -0.448600 0.000000 0
M  V30 7 C -3.897054 0.051400 0.000000 0
M  V30 8 C -3.031129 -0.448600 0.000000 0
M  V30 9 C -2.165166 0.051400 0.000000 0
M  V30 10 C -1.299241 -0.448600 0.000000 0
M  V30 11 C -0.433278 0.051400 0.000000 0
M  V30 12 C 0.432763 -0.448600 0.000000 0
M  V30 13 C 1.298841 0.051400 0.000000 0
M  V30 14 O 2.164882 -0.448600 0.000000 0
M  V30 15 C 3.031045 0.051400 0.000000 0
M  V30 16 O 3.031105 1.051402 0.000000 0
M  V30 17 C 3.896971 -0.448600 0.000000 0
M  V30 18 C 4.762934 0.051400 0.000000 0
M  V30 19 C 5.628859 -0.448600 0.000000 0
M  V30 20 C 6.494822 0.051400 0.000000 0
M  V30 21 C 7.360863 -0.448600 0.000000 0
M  V30 22 O 7.360854 -1.448602 0.000000 0
M  V30 END ATOM
M  V30 BEGIN BOND
M  V30 1 1 3 4
M  V30 2 1 4 5
M  V30 3 1 5 6
M  V30 4 1 6 7
M  V30 5 1 7 8
M  V30 6 1 8 9
M  V30 7 1 9 10
M  V30 8 1 10 11
M  V30 9 1 11 12
M  V30 10 1 12 13
M  V30 11 1 13 14
M  V30 12 1 14 15
M  V30 13 2 15 16
M  V30 14 1 15 17
M  V30 15 1 17 18
M  V30 16 1 18 19
M  V30 17 1 19 20
M  V30 18 1 20 21
M  V30 19 2 21 22
M  V30 20 1 1 3
M  V30 21 1 2 21
M  V30 END BOND
M  V30 BEGIN SGROUP
M  V30 1 SRU 0 ATOMS=(4 1 2 3 21) CBONDS=(2 20 21) -
M  V30 BRKXYZ=(9 -7.7945 -0.6986 0 -7.7945 0.3014 0 0 0 0) BRKXYZ=(9 7.7939 -0-
M  V30 .6986 0 7.7939 0.3014 0 0 0 0)
M  V30 END SGROUP
M  V30 END CTAB
M  END
>  <BIGSMILES_BRACKET_RECORDS_JSON>
{
  "records": [
    {
      "id": 0,
      "bracket_kind": "backbone",
      "pairing_id": "F1/mergedFragments[0]",
      "group_id": "<1:3",
      "ru_midpoint": [
        -0.0002579191177215501,
        -0.1985750846577239
      ],
      "bond_midpoint": [
        -7.794497370945449,
        -0.19859999999999994
      ],
      "orientation_vector": [
        0.0,
        -1.0
      ],
      "half_bracket_size": 0.5000007906392475,
      "bond": [
        0,
        2
      ],
      "fragment": "F1",
      "backbone": true,
      "suspended_anchor_atom": null,
      "suspended_reason": null,
      "source_label": "F1/mergedFragments[0]",
      "marker_id": "0",
      "side": "left",
      "connection_group": "<1",
      "marker_type_index": 3
    },
    {
      "id": 1,
      "bracket_kind": "backbone",
      "pairing_id": "F1/mergedFragments[0]",
      "group_id": ">1:4",
      "ru_midpoint": [
        -0.0002579191177215501,
        -0.1985750846577239
      ],
      "bond_midpoint": [
        7.79388354465041,
        -0.1986
      ],
      "orientation_vector": [
        0.0,
        -1.0
      ],
      "half_bracket_size": 0.5000007906392475,
      "bond": [
        1,
        20
      ],
      "fragment": "F1",
      "backbone": true,
      "suspended_anchor_atom": null,
      "suspended_reason": null,
      "source_label": "F1/mergedFragments[0]",
      "marker_id": "21",
      "side": "right",
      "connection_group": ">1",
      "marker_type_index": 4
    }
  ]
}
