
     RDKit          2D

  0  0  0  0  0  0  0  0  0  0999 V3000
M  V30 BEGIN CTAB
M  V30 COUNTS 9 8 1 0 0
M  V30 BEGIN ATOM
M  V30 1 H -1.299280 -0.448600 0.000000 0
M  V30 2 H 1.298881 0.051400 0.000000 0
M  V30 3 C -0.433226 0.051400 0.000000 0
M  V30 4 C 0.432827 -0.448600 0.000000 0
M  V30 5 C 0.432827 0.551425 0.000000 0
M  V30 6 C 0.432827 -1.448632 0.000000 0
M  V30 7 O -0.433145 -1.948724 0.000000 0
M  V30 8 O 1.298974 -1.948472 0.000000 0
M  V30 9 C 1.298974 -2.948504 0.000000 0
M  V30 END ATOM
M  V30 BEGIN BOND
M  V30 1 1 3 4
M  V30 2 1 4 5
M  V30 3 1 4 6
M  V30 4 2 6 7
M  V30 5 1 6 8
M  V30 6 1 8 9
M  V30 7 1 1 3
M  V30 8 1 2 4
M  V30 END BOND
M  V30 BEGIN SGROUP
M  V30 1 SRU 0 ATOMS=(4 1 2 3 4) CBONDS=(2 7 8) -
M  V30 BRKXYZ=(9 -0.8663 0.3014 0 -0.8663 -0.6986 0 0 0 0) BRKXYZ=(9 0.8659 0.-
M  V30 3014 0 0.8659 -0.6986 0 0 0 0)
M  V30 END SGROUP
M  V30 END CTAB
M  END
>  <BIGSMILES_BRACKET_RECORDS_JSON>
{
  "records": [
    {
      "id": 0,
      "bracket_kind": "backbone",
      "pairing_id": "F1/fragments[0]",
      "group_id": "<1:3",
      "ru_midpoint": [
        -0.00019943418023116166,
        -0.19860000000000005
      ],
      "bond_midpoint": [
        -0.8662532216962151,
        -0.1986
      ],
      "orientation_vector": [
        0.0,
        1.0
      ],
      "half_bracket_size": 0.500000157129195,
      "bond": [
        0,
        2
      ],
      "fragment": "F1",
      "backbone": true,
      "suspended_anchor_atom": null,
      "suspended_reason": null,
      "source_label": "F1/fragments[0]",
      "marker_id": "0",
      "side": "left",
      "connection_group": "<1",
      "marker_type_index": 3
    },
    {
      "id": 1,
      "bracket_kind": "backbone",
      "pairing_id": "F1/fragments[0]",
      "group_id": ">1:4",
      "ru_midpoint": [
        -0.00019943418023116166,
        -0.19860000000000005
      ],
      "bond_midpoint": [
        0.8658543533357528,
        -0.1986
      ],
      "orientation_vector": [
        0.0,
        1.0
      ],
      "half_bracket_size": 0.500000157129195,
      "bond": [
        1,
        3
      ],
      "fragment": "F1",
      "backbone": true,
      "suspended_anchor_atom": null,
      "suspended_reason": null,
      "source_label": "F1/fragments[0]",
      "marker_id": "8",
      "side": "right",
      "connection_group": ">1",
      "marker_type_index": 4
    }
  ]
}
