
     RDKit          2D

  0  0  0  0  0  0  0  0  0  0999 V3000
M  V30 BEGIN CTAB
M  V30 COUNTS 22 21 1 0 0
M  V30 BEGIN ATOM
M  V30 1 H -8.227122 0.051400 0.000000 0
M  V30 2 H 8.226838 -0.448600 0.000000 0
M  V30 3 N -7.361175 -0.448600 0.000000 0
M  V30 4 C -6.495228 0.051400 0.000000 0
M  V30 5 C -5.629290 -0.448600 0.000000 0
M  V30 6 C -4.763343 0.051400 0.000000 0
M  V30 7 C -3.897405 -0.448600 0.000000 0
M  V30 8 C -3.031458 0.051400 0.000000 0
M  V30 9 C -2.165520 -0.448600 0.000000 0
M  V30 10 N -1.299573 0.051400 0.000000 0
M  V30 11 C -0.433635 -0.448600 0.000000 0
M  V30 12 O -0.433637 -1.448600 0.000000 0
M  V30 13 C 0.432312 0.051400 0.000000 0
M  V30 14 C 1.298366 -0.448600 0.000000 0
M  V30 15 C 2.164428 0.051400 0.000000 0
M  V30 16 C 3.030482 -0.448600 0.000000 0
M  V30 17 C 3.896544 0.051400 0.000000 0
M  V30 18 C 4.762598 -0.448600 0.000000 0
M  V30 19 C 5.628660 0.051400 0.000000 0
M  V30 20 C 6.494714 -0.448600 0.000000 0
M  V30 21 C 7.360776 0.051400 0.000000 0
M  V30 22 O 7.360778 1.051400 0.000000 0
M  V30 END ATOM
M  V30 BEGIN BOND
M  V30 1 1 3 4
M  V30 2 1 4 5
M  V30 3 1 5 6
M  V30 4 1 6 7
M  V30 5 1 7 8
M  V30 6 1 8 9
M  V30 7 1 9 10
M  V30 8 1 10 11
M  V30 9 2 11 12
M  V30 10 1 11 13
M  V30 11 1 13 14
M  V30 12 1 14 15
M  V30 13 1 15 16
M  V30 14 1 16 17
M  V30 15 1 17 18
M  V30 16 1 18 19
M  V30 17 1 19 20
M  V30 18 1 20 21
M  V30 19 2 21 22
M  V30 20 1 1 3
M  V30 21 1 2 21
M  V30 END BOND
M  V30 BEGIN SGROUP
M  V30 1 SRU 0 ATOMS=(4 1 2 3 21) CBONDS=(2 20 21) -
M  V30 BRKXYZ=(9 -7.7941 0.3014 0 -7.7941 -0.6986 0 0 0 0) BRKXYZ=(9 7.7938 0.-
M  V30 3014 0 7.7938 -0.6986 0 0 0 0)
M  V30 END SGROUP
M  V30 END CTAB
M  END
>  <BIGSMILES_BRACKET_RECORDS_JSON>
{
  "records": [
    {
      "id": 0,
      "bracket_kind": "backbone",
      "pairing_id": "F1/mergedFragments[0]",
      "group_id": "<1:3",
      "ru_midpoint": [
        -0.0003495012701341116,
        -0.19859999999999875
      ],
      "bond_midpoint": [
        -7.794148369619781,
        -0.19859999999999994
      ],
      "orientation_vector": [
        0.0,
        1.0
      ],
      "half_bracket_size": 0.5000001571291959,
      "bond": [
        0,
        2
      ],
      "fragment": "F1",
      "backbone": true,
      "suspended_anchor_atom": null,
      "suspended_reason": null,
      "source_label": "F1/mergedFragments[0]",
      "marker_id": "0",
      "side": "left",
      "connection_group": "<1",
      "marker_type_index": 3
    },
    {
      "id": 1,
      "bracket_kind": "backbone",
      "pairing_id": "F1/mergedFragments[0]",
      "group_id": ">1:4",
      "ru_midpoint": [
        -0.0003495012701341116,
        -0.19859999999999875
      ],
      "bond_midpoint": [
        7.793807318514492,
        -0.19859999999999983
      ],
      "orientation_vector": [
        0.0,
        1.0
      ],
      "half_bracket_size": 0.5000001571291959,
      "bond": [
        1,
        20
      ],
      "fragment": "F1",
      "backbone": true,
      "suspended_anchor_atom": null,
      "suspended_reason": null,
      "source_label": "F1/mergedFragments[0]",
      "marker_id": "21",
      "side": "right",
      "connection_group": ">1",
      "marker_type_index": 4
    }
  ]
}
