
     RDKit          2D

  0  0  0  0  0  0  0  0  0  0999 V3000
M  V30 BEGIN CTAB
M  V30 COUNTS 13 12 1 0 0
M  V30 BEGIN ATOM
M  V30 1 H -4.763369 -0.448551 0.000000 0
M  V30 2 H 4.763170 0.051351 0.000000 0
M  V30 3 N -3.897386 0.051351 0.000000 0
M  V30 4 C -3.031403 -0.448551 0.000000 0
M  V30 5 C -2.165383 0.051351 0.000000 0
M  V30 6 C -1.299284 -0.448551 0.000000 0
M  V30 7 C -0.433149 0.051351 0.000000 0
M  V30 8 C 0.432950 -0.448551 0.000000 0
M  V30 9 C 1.299085 0.051351 0.000000 0
M  V30 10 C 2.165184 -0.448551 0.000000 0
M  V30 11 C 3.031204 0.051351 0.000000 0
M  V30 12 C 3.897187 -0.448551 0.000000 0
M  V30 13 O 3.897178 -1.448553 0.000000 0
M  V30 END ATOM
M  V30 BEGIN BOND
M  V30 1 1 3 4
M  V30 2 1 4 5
M  V30 3 1 5 6
M  V30 4 1 6 7
M  V30 5 1 7 8
M  V30 6 1 8 9
M  V30 7 1 9 10
M  V30 8 1 10 11
M  V30 9 1 11 12
M  V30 10 2 12 13
M  V30 11 1 1 3
M  V30 12 1 2 12
M  V30 END BOND
M  V30 BEGIN SGROUP
M  V30 1 SRU 0 ATOMS=(4 1 2 3 12) CBONDS=(2 11 12) -
M  V30 BRKXYZ=(9 -4.3304 0.3013 0 -4.3304 -0.6985 0 0 0 0) BRKXYZ=(9 4.3302 0.-
M  V30 3013 0 4.3302 -0.6985 0 0 0 0)
M  V30 END SGROUP
M  V30 END CTAB
M  END
>  <BIGSMILES_BRACKET_RECORDS_JSON>
{
  "records": [
    {
      "id": 0,
      "bracket_kind": "backbone",
      "pairing_id": "F1/fragments[0]",
      "group_id": "<1:3",
      "ru_midpoint": [
        -9.099066593093452e-05,
        -0.1986433421646911
      ],
      "bond_midpoint": [
        -4.330377286873768,
        -0.1986000000000001
      ],
      "orientation_vector": [
        0.0,
        1.0
      ],
      "half_bracket_size": 0.49990119612788875,
      "bond": [
        0,
        2
      ],
      "fragment": "F1",
      "backbone": true,
      "suspended_anchor_atom": null,
      "suspended_reason": null,
      "source_label": "F1/fragments[0]",
      "marker_id": "0",
      "side": "left",
      "connection_group": "<1",
      "marker_type_index": 3
    },
    {
      "id": 1,
      "bracket_kind": "backbone",
      "pairing_id": "F1/fragments[0]",
      "group_id": ">1:4",
      "ru_midpoint": [
        -9.099066593093452e-05,
        -0.1986433421646911
      ],
      "bond_midpoint": [
        4.330178644731195,
        -0.1986000000000001
      ],
      "orientation_vector": [
        0.0,
        1.0
      ],
      "half_bracket_size": 0.49990119612788875,
      "bond": [
        1,
        11
      ],
      "fragment": "F1",
      "backbone": true,
      "suspended_anchor_atom": null,
      "suspended_reason": null,
      "source_label": "F1/fragments[0]",
      "marker_id": "12",
      "side": "right",
      "connection_group": ">1",
      "marker_type_index": 4
    }
  ]
}
