
     RDKit          2D

  0  0  0  0  0  0  0  0  0  0999 V3000
M  V30 BEGIN CTAB
M  V30 COUNTS 12 11 1 0 0
M  V30 BEGIN ATOM
M  V30 1 H -1.299190 -0.448550 0.000000 0
M  V30 2 H 1.298799 0.051350 0.000000 0
M  V30 3 C -0.433193 0.051350 0.000000 0
M  V30 4 C 0.432803 -0.448550 0.000000 0
M  V30 5 C 0.432803 -1.448482 0.000000 0
M  V30 6 O -0.433257 -1.948424 0.000000 0
M  V30 7 O 1.298689 -1.948572 0.000000 0
M  V30 8 C 1.298689 -2.948504 0.000000 0
M  V30 9 C 2.164575 -3.448595 0.000000 0
M  V30 10 C 2.164575 -4.448526 0.000000 0
M  V30 11 C 3.030635 -4.948517 0.000000 0
M  V30 12 Cl 0.432803 0.551482 0.000000 0
M  V30 END ATOM
M  V30 BEGIN BOND
M  V30 1 1 3 4
M  V30 2 1 4 5
M  V30 3 2 5 6
M  V30 4 1 5 7
M  V30 5 1 7 8
M  V30 6 1 8 9
M  V30 7 1 9 10
M  V30 8 1 10 11
M  V30 9 1 4 12
M  V30 10 1 1 3
M  V30 11 1 2 4
M  V30 END BOND
M  V30 BEGIN SGROUP
M  V30 1 SRU 0 ATOMS=(4 1 2 3 4) CBONDS=(2 10 11) -
M  V30 BRKXYZ=(9 -0.8662 0.3013 0 -0.8662 -0.6985 0 0 0 0) BRKXYZ=(9 0.8658 0.-
M  V30 3013 0 0.8658 -0.6985 0 0 0 0)
M  V30 END SGROUP
M  V30 END CTAB
M  END
>  <BIGSMILES_BRACKET_RECORDS_JSON>
{
  "records": [
    {
      "id": 0,
      "bracket_kind": "backbone",
      "pairing_id": "F1/fragments[0]",
      "group_id": "$a:2",
      "ru_midpoint": [
        -0.00019637720974596817,
        -0.1986017650270498
      ],
      "bond_midpoint": [
        -0.8661915646678358,
        -0.1986
      ],
      "orientation_vector": [
        0.0,
        1.0
      ],
      "half_bracket_size": 0.4999001600153621,
      "bond": [
        0,
        2
      ],
      "fragment": "F1",
      "backbone": true,
      "suspended_anchor_atom": null,
      "suspended_reason": null,
      "source_label": "F1/fragments[0]",
      "marker_id": "0",
      "side": "left",
      "connection_group": "$a",
      "marker_type_index": 2
    },
    {
      "id": 1,
      "bracket_kind": "backbone",
      "pairing_id": "F1/fragments[0]",
      "group_id": "$a:2",
      "ru_midpoint": [
        -0.00019637720974596817,
        -0.1986017650270498
      ],
      "bond_midpoint": [
        0.8658008487296529,
        -0.1986
      ],
      "orientation_vector": [
        0.0,
        1.0
      ],
      "half_bracket_size": 0.4999001600153621,
      "bond": [
        1,
        3
      ],
      "fragment": "F1",
      "backbone": true,
      "suspended_anchor_atom": null,
      "suspended_reason": null,
      "source_label": "F1/fragments[0]",
      "marker_id": "11",
      "side": "right",
      "connection_group": "$a",
      "marker_type_index": 2
    }
  ]
}
