
     RDKit          2D

  0  0  0  0  0  0  0  0  0  0999 V3000
M  V30 BEGIN CTAB
M  V30 COUNTS 34 36 2 0 0
M  V30 BEGIN ATOM
M  V30 1 H 4.316737 1.547446 0.000000 0
M  V30 2 C 7.419646 1.047412 0.000000 0
M  V30 3 C 7.419646 2.047523 0.000000 0
M  V30 4 C 8.285551 2.547424 0.000000 0
M  V30 5 C 8.285824 3.547609 0.000000 0
M  V30 6 C 7.419820 4.047646 0.000000 0
M  V30 7 C 6.553766 3.547486 0.000000 0
M  V30 8 C 6.553642 2.547561 0.000000 0
M  V30 9 C 7.419646 0.047653 0.000000 0
M  V30 10 C 6.553723 -0.452325 0.000000 0
M  V30 11 C 6.553924 -1.452430 0.000000 0
M  V30 12 C 7.419860 -1.952434 0.000000 0
M  V30 13 C 8.285870 -1.452405 0.000000 0
M  V30 14 C 8.285683 -0.452524 0.000000 0
M  V30 15 C 8.285557 1.547461 0.000000 0
M  V30 16 C 11.162077 1.047515 0.000000 0
M  V30 17 C 11.162077 2.047415 0.000000 0
M  V30 18 C 12.027995 1.547564 0.000000 0
M  V30 19 C 12.893905 1.047515 0.000000 0
M  V30 20 C 5.182762 1.047446 0.000000 0
M  V30 21 C 5.182762 2.047471 0.000000 0
M  V30 22 C 5.182762 0.047414 0.000000 0
M  V30 23 O 4.316789 -0.452677 0.000000 0
M  V30 24 O 6.048908 -0.452426 0.000000 0
M  V30 25 C 6.048908 -1.452458 0.000000 0
M  V30 26 C 6.048836 1.547412 0.000000 0
M  V30 27 C 9.429926 1.047502 0.000000 0
M  V30 28 C 9.429926 0.047576 0.000000 0
M  V30 29 C 10.295828 -0.452523 0.000000 0
M  V30 30 C 10.295656 -1.452549 0.000000 0
M  V30 31 C 9.429580 -1.952476 0.000000 0
M  V30 32 C 8.563677 -1.452376 0.000000 0
M  V30 33 C 8.563850 -0.452350 0.000000 0
M  V30 34 C 10.296022 1.547464 0.000000 0
M  V30 END ATOM
M  V30 BEGIN BOND
M  V30 1 1 2 3
M  V30 2 2 3 4
M  V30 3 1 4 5
M  V30 4 2 5 6
M  V30 5 1 6 7
M  V30 6 2 7 8
M  V30 7 1 2 9
M  V30 8 2 9 10
M  V30 9 1 10 11
M  V30 10 2 11 12
M  V30 11 1 12 13
M  V30 12 2 13 14
M  V30 13 1 2 15
M  V30 14 1 16 17
M  V30 15 1 16 18
M  V30 16 1 18 19
M  V30 17 1 8 3
M  V30 18 1 14 9
M  V30 19 1 20 21
M  V30 20 1 20 22
M  V30 21 2 22 23
M  V30 22 1 22 24
M  V30 23 1 24 25
M  V30 24 1 20 26
M  V30 25 1 1 20
M  V30 26 1 2 26
M  V30 27 1 27 28
M  V30 28 2 28 29
M  V30 29 1 29 30
M  V30 30 2 30 31
M  V30 31 1 31 32
M  V30 32 2 32 33
M  V30 33 1 27 34
M  V30 34 1 33 28
M  V30 35 1 15 27
M  V30 36 1 16 34
M  V30 END BOND
M  V30 BEGIN SGROUP
M  V30 1 SRU 0 ATOMS=(4 15 16 27 34) CBONDS=(2 35 36) -
M  V30 BRKXYZ=(9 8.8577 1.7974 0 8.8577 0.7975 0 0 0 0) BRKXYZ=(9 10.7290 1.79-
M  V30 75 0 10.7290 0.7975 0 0 0 0)
M  V30 2 SRU 0 ATOMS=(4 1 2 20 26) CBONDS=(2 25 26) -
M  V30 BRKXYZ=(9 4.7497 1.7974 0 4.7497 0.7975 0 0 0 0) BRKXYZ=(9 6.7342 1.797-
M  V30 4 0 6.7342 0.7974 0 0 0 0)
M  V30 END SGROUP
M  V30 END CTAB
M  END
>  <BIGSMILES_BRACKET_RECORDS_JSON>
{
  "records": [
    {
      "id": 0,
      "bracket_kind": "backbone",
      "pairing_id": "F2/fragments[0]",
      "group_id": "$a:2",
      "ru_midpoint": [
        9.86297399045288,
        1.2974829644195767
      ],
      "bond_midpoint": [
        8.857741158493095,
        1.2974813445563096
      ],
      "orientation_vector": [
        0.0,
        1.0
      ],
      "half_bracket_size": 0.4999626581630139,
      "bond": [
        14,
        26
      ],
      "fragment": "F2",
      "backbone": true,
      "suspended_anchor_atom": null,
      "suspended_reason": null,
      "source_label": "F2/fragments[0]",
      "marker_id": "0",
      "side": "left",
      "connection_group": "$a",
      "marker_type_index": 2
    },
    {
      "id": 1,
      "bracket_kind": "backbone",
      "pairing_id": "F2/fragments[0]",
      "group_id": "$a:2",
      "ru_midpoint": [
        9.86297399045288,
        1.2974829644195767
      ],
      "bond_midpoint": [
        10.729049474285038,
        1.2974894486829516
      ],
      "orientation_vector": [
        0.0,
        1.0
      ],
      "half_bracket_size": 0.4999626581630139,
      "bond": [
        15,
        33
      ],
      "fragment": "F2",
      "backbone": true,
      "suspended_anchor_atom": null,
      "suspended_reason": null,
      "source_label": "F2/fragments[0]",
      "marker_id": "9",
      "side": "right",
      "connection_group": "$a",
      "marker_type_index": 2
    },
    {
      "id": 2,
      "bracket_kind": "backbone",
      "pairing_id": "F1/fragments[0]",
      "group_id": "$a:2",
      "ru_midpoint": [
        5.6157990005299805,
        1.2974290557400956
      ],
      "bond_midpoint": [
        4.749749524795169,
        1.2974460913205177
      ],
      "orientation_vector": [
        0.0,
        1.0
      ],
      "half_bracket_size": 0.4999659288391558,
      "bond": [
        0,
        19
      ],
      "fragment": "F1",
      "backbone": true,
      "suspended_anchor_atom": null,
      "suspended_reason": null,
      "source_label": "F1/fragments[0]",
      "marker_id": "0",
      "side": "left",
      "connection_group": "$a",
      "marker_type_index": 2
    },
    {
      "id": 3,
      "bracket_kind": "backbone",
      "pairing_id": "F1/fragments[0]",
      "group_id": "$a:2",
      "ru_midpoint": [
        5.6157990005299805,
        1.2974290557400956
      ],
      "bond_midpoint": [
        6.734241054389791,
        1.2974120201596735
      ],
      "orientation_vector": [
        0.0,
        1.0
      ],
      "half_bracket_size": 0.4999659288391558,
      "bond": [
        1,
        25
      ],
      "fragment": "F1",
      "backbone": true,
      "suspended_anchor_atom": null,
      "suspended_reason": null,
      "source_label": "F1/fragments[0]",
      "marker_id": "8",
      "side": "right",
      "connection_group": "$a",
      "marker_type_index": 2
    }
  ]
}
