
     RDKit          2D

  0  0  0  0  0  0  0  0  0  0999 V3000
M  V30 BEGIN CTAB
M  V30 COUNTS 14 14 1 0 0
M  V30 BEGIN ATOM
M  V30 1 H -1.299286 -0.448608 0.000000 0
M  V30 2 H 1.298763 0.051408 0.000000 0
M  V30 3 C -0.433270 0.051408 0.000000 0
M  V30 4 C 0.432747 -0.448608 0.000000 0
M  V30 5 C 0.432747 -1.448633 0.000000 0
M  V30 6 C 1.298726 -1.948713 0.000000 0
M  V30 7 C 1.298553 -2.948638 0.000000 0
M  V30 8 C 0.432474 -3.448755 0.000000 0
M  V30 9 O 0.432400 -4.448507 0.000000 0
M  V30 10 C -0.433579 -4.948451 0.000000 0
M  V30 11 C -0.433752 -5.948376 0.000000 0
M  V30 12 C -1.299731 -6.448319 0.000000 0
M  V30 13 C -0.433505 -2.948675 0.000000 0
M  V30 14 C -0.433232 -1.948577 0.000000 0
M  V30 END ATOM
M  V30 BEGIN BOND
M  V30 1 1 3 4
M  V30 2 1 4 5
M  V30 3 2 5 6
M  V30 4 1 6 7
M  V30 5 2 7 8
M  V30 6 1 8 9
M  V30 7 1 9 10
M  V30 8 1 10 11
M  V30 9 1 11 12
M  V30 10 1 8 13
M  V30 11 2 13 14
M  V30 12 1 14 5
M  V30 13 1 1 3
M  V30 14 1 2 4
M  V30 END BOND
M  V30 BEGIN SGROUP
M  V30 1 SRU 0 ATOMS=(4 1 2 3 4) CBONDS=(2 13 14) -
M  V30 BRKXYZ=(9 -0.8663 0.3014 0 -0.8663 -0.6986 0 0 0 0) BRKXYZ=(9 0.8658 0.-
M  V30 3014 0 0.8658 -0.6986 0 0 0 0)
M  V30 END SGROUP
M  V30 END CTAB
M  END
>  <BIGSMILES_BRACKET_RECORDS_JSON>
{
  "records": [
    {
      "id": 0,
      "bracket_kind": "backbone",
      "pairing_id": "F1/fragments[0]",
      "group_id": "$a:2",
      "ru_midpoint": [
        -0.00024585696721501904,
        -0.19857319740553347
      ],
      "bond_midpoint": [
        -0.8662778653086196,
        -0.1986000000000001
      ],
      "orientation_vector": [
        0.0,
        1.0
      ],
      "half_bracket_size": 0.5000159978427487,
      "bond": [
        0,
        2
      ],
      "fragment": "F1",
      "backbone": true,
      "suspended_anchor_atom": null,
      "suspended_reason": null,
      "source_label": "F1/fragments[0]",
      "marker_id": "0",
      "side": "left",
      "connection_group": "$a",
      "marker_type_index": 2
    },
    {
      "id": 1,
      "bracket_kind": "backbone",
      "pairing_id": "F1/fragments[0]",
      "group_id": "$a:2",
      "ru_midpoint": [
        -0.00024585696721501904,
        -0.19857319740553347
      ],
      "bond_midpoint": [
        0.8657552081646553,
        -0.1986000000000001
      ],
      "orientation_vector": [
        0.0,
        1.0
      ],
      "half_bracket_size": 0.5000159978427487,
      "bond": [
        1,
        3
      ],
      "fragment": "F1",
      "backbone": true,
      "suspended_anchor_atom": null,
      "suspended_reason": null,
      "source_label": "F1/fragments[0]",
      "marker_id": "13",
      "side": "right",
      "connection_group": "$a",
      "marker_type_index": 2
    }
  ]
}
