
     RDKit          2D

  0  0  0  0  0  0  0  0  0  0999 V3000
M  V30 BEGIN CTAB
M  V30 COUNTS 16 16 1 0 0
M  V30 BEGIN ATOM
M  V30 1 H -4.598254 -0.131728 0.000000 0
M  V30 2 H 4.731821 -1.131628 0.000000 0
M  V30 3 O -3.732250 -0.631628 0.000000 0
M  V30 4 C -2.866245 -0.131728 0.000000 0
M  V30 5 C -2.000249 -0.631628 0.000000 0
M  V30 6 O -1.134245 -0.131728 0.000000 0
M  V30 7 C -0.268249 -0.631628 0.000000 0
M  V30 8 O -0.527033 -1.597563 0.000000 0
M  V30 9 C 0.731751 -0.631628 0.000000 0
M  V30 10 C 1.231769 0.234428 0.000000 0
M  V30 11 C 2.231804 0.234428 0.000000 0
M  V30 12 C 2.731821 -0.631628 0.000000 0
M  V30 13 C 2.231804 -1.497684 0.000000 0
M  V30 14 C 1.231769 -1.497684 0.000000 0
M  V30 15 C 3.731821 -0.631628 0.000000 0
M  V30 16 O 3.990634 -1.597529 0.000000 0
M  V30 END ATOM
M  V30 BEGIN BOND
M  V30 1 1 3 4
M  V30 2 1 4 5
M  V30 3 1 5 6
M  V30 4 1 6 7
M  V30 5 2 7 8
M  V30 6 1 7 9
M  V30 7 2 9 10
M  V30 8 1 10 11
M  V30 9 2 11 12
M  V30 10 1 12 13
M  V30 11 2 13 14
M  V30 12 1 12 15
M  V30 13 2 15 16
M  V30 14 1 14 9
M  V30 15 1 1 3
M  V30 16 1 2 15
M  V30 END BOND
M  V30 BEGIN SGROUP
M  V30 1 SRU 0 ATOMS=(4 1 2 3 15) CBONDS=(2 15 16) -
M  V30 BRKXYZ=(9 -4.1653 1.3504 0 -4.1653 -2.1138 0 0 0 0) BRKXYZ=(9 4.2318 0.-
M  V30 8505 0 4.2318 -2.6137 0 0 0 0)
M  V30 END SGROUP
M  V30 END CTAB
M  END
>  <BIGSMILES_BRACKET_RECORDS_JSON>
{
  "records": [
    {
      "id": 0,
      "bracket_kind": "backbone",
      "pairing_id": "F1/mergedFragments[0]",
      "group_id": "<1:3",
      "ru_midpoint": [
        0.361366007657655,
        -0.4888109065828229
      ],
      "bond_midpoint": [
        -4.165251941800218,
        -0.3816777882119326
      ],
      "orientation_vector": [
        0.0,
        1.0
      ],
      "half_bracket_size": 1.7321114728784597,
      "bond": [
        0,
        2
      ],
      "fragment": "F1",
      "backbone": true,
      "suspended_anchor_atom": null,
      "suspended_reason": null,
      "source_label": "F1/mergedFragments[0]",
      "marker_id": "0",
      "side": "left",
      "connection_group": "<1",
      "marker_type_index": 3
    },
    {
      "id": 1,
      "bracket_kind": "backbone",
      "pairing_id": "F1/mergedFragments[0]",
      "group_id": ">1:4",
      "ru_midpoint": [
        0.361366007657655,
        -0.4888109065828229
      ],
      "bond_midpoint": [
        4.231821419665465,
        -0.881627868219615
      ],
      "orientation_vector": [
        0.0,
        1.0
      ],
      "half_bracket_size": 1.7321114728784597,
      "bond": [
        1,
        14
      ],
      "fragment": "F1",
      "backbone": true,
      "suspended_anchor_atom": null,
      "suspended_reason": null,
      "source_label": "F1/mergedFragments[0]",
      "marker_id": "15",
      "side": "right",
      "connection_group": ">1",
      "marker_type_index": 4
    }
  ]
}
