
     RDKit          2D

  0  0  0  0  0  0  0  0  0  0999 V3000
M  V30 BEGIN CTAB
M  V30 COUNTS 9 9 1 0 0
M  V30 BEGIN ATOM
M  V30 1 H -2.433213 -0.631608 0.000000 0
M  V30 2 H 2.566765 -1.131608 0.000000 0
M  V30 3 C -1.433213 -0.631608 0.000000 0
M  V30 4 C -0.933219 0.234408 0.000000 0
M  V30 5 C 0.066771 0.234408 0.000000 0
M  V30 6 C 0.566765 -0.631608 0.000000 0
M  V30 7 C 0.066771 -1.497624 0.000000 0
M  V30 8 C -0.933219 -1.497624 0.000000 0
M  V30 9 S 1.566765 -0.631608 0.000000 0
M  V30 END ATOM
M  V30 BEGIN BOND
M  V30 1 2 3 4
M  V30 2 1 4 5
M  V30 3 2 5 6
M  V30 4 1 6 7
M  V30 5 2 7 8
M  V30 6 1 6 9
M  V30 7 1 8 3
M  V30 8 1 1 3
M  V30 9 1 2 9
M  V30 END BOND
M  V30 BEGIN SGROUP
M  V30 1 SRU 0 ATOMS=(4 1 2 3 9) CBONDS=(2 8 9) -
M  V30 BRKXYZ=(9 -1.9332 1.1004 0 -1.9332 -2.3636 0 0 0 0) BRKXYZ=(9 2.0668 0.-
M  V30 8504 0 2.0668 -2.6136 0 0 0 0)
M  V30 END SGROUP
M  V30 END CTAB
M  END
>  <BIGSMILES_BRACKET_RECORDS_JSON>
{
  "records": [
    {
      "id": 0,
      "bracket_kind": "backbone",
      "pairing_id": "F1/fragments[0]",
      "group_id": "<1:3",
      "ru_midpoint": [
        -0.04778806867945895,
        -0.5760509263903251
      ],
      "bond_midpoint": [
        -1.9332132637401145,
        -0.6316080152580545
      ],
      "orientation_vector": [
        0.0,
        1.0
      ],
      "half_bracket_size": 1.7320320610322186,
      "bond": [
        0,
        2
      ],
      "fragment": "F1",
      "backbone": true,
      "suspended_anchor_atom": null,
      "suspended_reason": null,
      "source_label": "F1/fragments[0]",
      "marker_id": "0",
      "side": "left",
      "connection_group": "<1",
      "marker_type_index": 3
    },
    {
      "id": 1,
      "bracket_kind": "backbone",
      "pairing_id": "F1/fragments[0]",
      "group_id": ">1:4",
      "ru_midpoint": [
        -0.04778806867945895,
        -0.5760509263903251
      ],
      "bond_midpoint": [
        2.066765089623912,
        -0.8816080152580548
      ],
      "orientation_vector": [
        0.0,
        1.0
      ],
      "half_bracket_size": 1.7320320610322186,
      "bond": [
        1,
        8
      ],
      "fragment": "F1",
      "backbone": true,
      "suspended_anchor_atom": null,
      "suspended_reason": null,
      "source_label": "F1/fragments[0]",
      "marker_id": "8",
      "side": "right",
      "connection_group": ">1",
      "marker_type_index": 4
    }
  ]
}
