
     RDKit          2D

  0  0  0  0  0  0  0  0  0  0999 V3000
M  V30 BEGIN CTAB
M  V30 COUNTS 12 12 1 0 0
M  V30 BEGIN ATOM
M  V30 1 H -1.299214 -0.448583 0.000000 0
M  V30 2 H 1.298922 0.051383 0.000000 0
M  V30 3 C -0.433169 0.051383 0.000000 0
M  V30 4 C 0.432877 -0.448583 0.000000 0
M  V30 5 C 0.432877 -1.448334 0.000000 0
M  V30 6 C 1.298893 -1.948352 0.000000 0
M  V30 7 C 1.298693 -2.948450 0.000000 0
M  V30 8 C 0.432751 -3.448457 0.000000 0
M  V30 9 O 0.432824 -4.448482 0.000000 0
M  V30 10 C -0.433292 -4.948389 0.000000 0
M  V30 11 C -0.433265 -2.948440 0.000000 0
M  V30 12 C -0.433165 -1.948515 0.000000 0
M  V30 END ATOM
M  V30 BEGIN BOND
M  V30 1 1 3 4
M  V30 2 1 4 5
M  V30 3 2 5 6
M  V30 4 1 6 7
M  V30 5 2 7 8
M  V30 6 1 8 9
M  V30 7 1 9 10
M  V30 8 1 8 11
M  V30 9 2 11 12
M  V30 10 1 12 5
M  V30 11 1 1 3
M  V30 12 1 2 4
M  V30 END BOND
M  V30 BEGIN SGROUP
M  V30 1 SRU 0 ATOMS=(4 1 2 3 4) CBONDS=(2 11 12) -
M  V30 BRKXYZ=(9 -0.8662 0.3014 0 -0.8662 -0.6986 0 0 0 0) BRKXYZ=(9 0.8659 0.-
M  V30 3014 0 0.8659 -0.6986 0 0 0 0)
M  V30 END SGROUP
M  V30 END CTAB
M  END
>  <BIGSMILES_BRACKET_RECORDS_JSON>
{
  "records": [
    {
      "id": 0,
      "bracket_kind": "backbone",
      "pairing_id": "F1/fragments[0]",
      "group_id": "$a:2",
      "ru_midpoint": [
        -0.00015925130112814934,
        -0.19862319993229804
      ],
      "bond_midpoint": [
        -0.8661912992334664,
        -0.19860000000000055
      ],
      "orientation_vector": [
        0.0,
        1.0
      ],
      "half_bracket_size": 0.4999659286416809,
      "bond": [
        0,
        2
      ],
      "fragment": "F1",
      "backbone": true,
      "suspended_anchor_atom": null,
      "suspended_reason": null,
      "source_label": "F1/fragments[0]",
      "marker_id": "0",
      "side": "left",
      "connection_group": "$a",
      "marker_type_index": 2
    },
    {
      "id": 1,
      "bracket_kind": "backbone",
      "pairing_id": "F1/fragments[0]",
      "group_id": "$a:2",
      "ru_midpoint": [
        -0.00015925130112814934,
        -0.19862319993229804
      ],
      "bond_midpoint": [
        0.8658995877553914,
        -0.19860000000000055
      ],
      "orientation_vector": [
        0.0,
        1.0
      ],
      "half_bracket_size": 0.4999659286416809,
      "bond": [
        1,
        3
      ],
      "fragment": "F1",
      "backbone": true,
      "suspended_anchor_atom": null,
      "suspended_reason": null,
      "source_label": "F1/fragments[0]",
      "marker_id": "11",
      "side": "right",
      "connection_group": "$a",
      "marker_type_index": 2
    }
  ]
}
