
     RDKit          2D

  0  0  0  0  0  0  0  0  0  0999 V3000
M  V30 BEGIN CTAB
M  V30 COUNTS 12 12 1 0 0
M  V30 BEGIN ATOM
M  V30 1 H -1.299366 -0.448595 0.000000 0
M  V30 2 H 1.299074 0.051395 0.000000 0
M  V30 3 C -0.433219 0.051395 0.000000 0
M  V30 4 C 0.432927 -0.448595 0.000000 0
M  V30 5 C 0.432927 -1.448520 0.000000 0
M  V30 6 C 1.299080 -1.948501 0.000000 0
M  V30 7 C 2.165059 -1.448457 0.000000 0
M  V30 8 C 1.299080 -2.948426 0.000000 0
M  V30 9 C 0.433187 -3.448520 0.000000 0
M  V30 10 C 0.433187 -4.448444 0.000000 0
M  V30 11 C -0.432965 -2.948539 0.000000 0
M  V30 12 C -0.432792 -1.948714 0.000000 0
M  V30 END ATOM
M  V30 BEGIN BOND
M  V30 1 1 3 4
M  V30 2 1 4 5
M  V30 3 2 5 6
M  V30 4 1 6 7
M  V30 5 1 6 8
M  V30 6 2 8 9
M  V30 7 1 9 10
M  V30 8 1 9 11
M  V30 9 2 11 12
M  V30 10 1 12 5
M  V30 11 1 1 3
M  V30 12 1 2 4
M  V30 END BOND
M  V30 BEGIN SGROUP
M  V30 1 SRU 0 ATOMS=(4 1 2 3 4) CBONDS=(2 11 12) -
M  V30 BRKXYZ=(9 -0.8663 0.3014 0 -0.8663 -0.6986 0 0 0 0) BRKXYZ=(9 0.8660 0.-
M  V30 3014 0 0.8660 -0.6986 0 0 0 0)
M  V30 END SGROUP
M  V30 END CTAB
M  END
>  <BIGSMILES_BRACKET_RECORDS_JSON>
{
  "records": [
    {
      "id": 0,
      "bracket_kind": "backbone",
      "pairing_id": "F1/fragments[0]",
      "group_id": "$a:2",
      "ru_midpoint": [
        -0.00015924928934407667,
        -0.19862320109385123
      ],
      "bond_midpoint": [
        -0.8662923144047769,
        -0.1985999999999999
      ],
      "orientation_vector": [
        0.0,
        1.0
      ],
      "half_bracket_size": 0.49999096051023084,
      "bond": [
        0,
        2
      ],
      "fragment": "F1",
      "backbone": true,
      "suspended_anchor_atom": null,
      "suspended_reason": null,
      "source_label": "F1/fragments[0]",
      "marker_id": "0",
      "side": "left",
      "connection_group": "$a",
      "marker_type_index": 2
    },
    {
      "id": 1,
      "bracket_kind": "backbone",
      "pairing_id": "F1/fragments[0]",
      "group_id": "$a:2",
      "ru_midpoint": [
        -0.00015924928934407667,
        -0.19862320109385123
      ],
      "bond_midpoint": [
        0.8660006047149147,
        -0.1985999999999999
      ],
      "orientation_vector": [
        0.0,
        1.0
      ],
      "half_bracket_size": 0.49999096051023084,
      "bond": [
        1,
        3
      ],
      "fragment": "F1",
      "backbone": true,
      "suspended_anchor_atom": null,
      "suspended_reason": null,
      "source_label": "F1/fragments[0]",
      "marker_id": "11",
      "side": "right",
      "connection_group": "$a",
      "marker_type_index": 2
    }
  ]
}
