
     RDKit          2D

  0  0  0  0  0  0  0  0  0  0999 V3000
M  V30 BEGIN CTAB
M  V30 COUNTS 46 47 3 0 0
M  V30 BEGIN ATOM
M  V30 1 H -1.299068 -0.448601 0.000000 0
M  V30 2 H 1.298898 0.051401 0.000000 0
M  V30 3 N -0.433079 0.051401 0.000000 0
M  V30 4 P 0.432909 -0.448601 0.000000 0
M  V30 5 O 0.432909 0.551399 0.000000 0
M  V30 6 C -0.433124 1.051393 0.000000 0
M  V30 7 C -0.433124 2.051363 0.000000 0
M  V30 8 O -1.299157 2.551357 0.000000 0
M  V30 9 C -1.299157 3.551327 0.000000 0
M  V30 10 C -2.165190 4.051321 0.000000 0
M  V30 11 O -2.165190 5.051290 0.000000 0
M  V30 12 C -3.031223 5.551285 0.000000 0
M  V30 13 O -3.897256 5.051310 0.000000 0
M  V30 14 C -3.031223 6.551254 0.000000 0
M  V30 15 C -2.531229 7.417287 0.000000 0
M  V30 16 C -3.897256 7.051249 0.000000 0
M  V30 17 O 0.432909 -1.448601 0.000000 0
M  V30 18 C -0.432951 -1.948677 0.000000 0
M  V30 19 C -0.432951 -2.948646 0.000000 0
M  V30 20 O -1.298984 -3.448621 0.000000 0
M  V30 21 C -1.298984 -4.448591 0.000000 0
M  V30 22 C -2.165017 -4.948566 0.000000 0
M  V30 23 O -2.165017 -5.948535 0.000000 0
M  V30 24 C -3.031050 -6.448510 0.000000 0
M  V30 25 O -3.897083 -5.948516 0.000000 0
M  V30 26 C -3.031050 -7.448480 0.000000 0
M  V30 27 C -2.531075 -8.314513 0.000000 0
M  V30 28 C -3.897083 -7.948455 0.000000 0
M  V30 29 Br -0.299298 6.551297 0.000000 0
M  V30 30 C -2.031254 6.551254 0.000000 0
M  V30 31 C -1.165295 6.051247 0.000000 0
M  V30 32 C -1.165295 5.051245 0.000000 0
M  V30 33 C -2.031497 4.551312 0.000000 0
M  V30 34 C -2.031297 3.551310 0.000000 0
M  V30 35 C -1.165495 3.051241 0.000000 0
M  V30 36 C -0.299293 3.551174 0.000000 0
M  V30 37 C -0.299493 4.551176 0.000000 0
M  V30 38 Br -0.299125 -7.448437 0.000000 0
M  V30 39 C -2.031081 -7.448480 0.000000 0
M  V30 40 C -1.165122 -7.948487 0.000000 0
M  V30 41 C -1.165122 -8.948489 0.000000 0
M  V30 42 C -2.031324 -9.448422 0.000000 0
M  V30 43 C -2.031124 -10.448424 0.000000 0
M  V30 44 C -1.165322 -10.948493 0.000000 0
M  V30 45 C -0.299120 -10.448560 0.000000 0
M  V30 46 C -0.299320 -9.448558 0.000000 0
M  V30 END ATOM
M  V30 BEGIN BOND
M  V30 1 2 3 4
M  V30 2 1 4 5
M  V30 3 1 5 6
M  V30 4 1 6 7
M  V30 5 1 7 8
M  V30 6 1 8 9
M  V30 7 1 9 10
M  V30 8 1 10 11
M  V30 9 1 11 12
M  V30 10 2 12 13
M  V30 11 1 12 14
M  V30 12 1 14 15
M  V30 13 1 14 16
M  V30 14 1 4 17
M  V30 15 1 17 18
M  V30 16 1 18 19
M  V30 17 1 19 20
M  V30 18 1 20 21
M  V30 19 1 21 22
M  V30 20 1 22 23
M  V30 21 1 23 24
M  V30 22 2 24 25
M  V30 23 1 24 26
M  V30 24 1 26 27
M  V30 25 1 26 28
M  V30 26 1 30 31
M  V30 27 1 31 32
M  V30 28 2 32 33
M  V30 29 1 33 34
M  V30 30 2 34 35
M  V30 31 1 35 36
M  V30 32 2 36 37
M  V30 33 1 37 32
M  V30 34 1 29 31
M  V30 35 1 14 30
M  V30 36 1 39 40
M  V30 37 1 40 41
M  V30 38 2 41 42
M  V30 39 1 42 43
M  V30 40 2 43 44
M  V30 41 1 44 45
M  V30 42 2 45 46
M  V30 43 1 46 41
M  V30 44 1 38 40
M  V30 45 1 26 39
M  V30 46 1 1 3
M  V30 47 1 2 4
M  V30 END BOND
M  V30 BEGIN SGROUP
M  V30 1 SRU 0 ATOMS=(4 26 38 39 40) CBONDS=(2 44 45) -
M  V30 BRKXYZ=(9 -2.5311 -6.9485 0 -2.5311 -7.9485 0 0 0 0) BRKXYZ=(9 -0.7321 -
M  V30 -7.1985 0 -0.7321 -8.1985 0 0 0 0)
M  V30 2 SRU 0 ATOMS=(4 14 29 30 31) CBONDS=(2 34 35) -
M  V30 BRKXYZ=(9 -2.5312 7.0513 0 -2.5312 6.0512 0 0 0 0) BRKXYZ=(9 -0.7323 6.-
M  V30 8013 0 -0.7323 5.8013 0 0 0 0)
M  V30 3 SRU 0 ATOMS=(4 1 2 3 4) CBONDS=(2 46 47) -
M  V30 BRKXYZ=(9 -0.8661 0.3014 0 -0.8661 -0.6986 0 0 0 0) BRKXYZ=(9 0.8659 0.-
M  V30 3014 0 0.8659 -0.6986 0 0 0 0)
M  V30 END SGROUP
M  V30 END CTAB
M  END
>  <BIGSMILES_BRACKET_RECORDS_JSON>
{
  "records": [
    {
      "id": 0,
      "bracket_kind": "backbone",
      "pairing_id": "F5/fragments[0]",
      "group_id": "$a:2",
      "ru_midpoint": [
        -1.5981267370666215,
        -7.698483246989999
      ],
      "bond_midpoint": [
        -2.5310655536082414,
        -7.448479717535383
      ],
      "orientation_vector": [
        0.0,
        1.0
      ],
      "half_bracket_size": 0.5000070589092322,
      "bond": [
        25,
        38
      ],
      "fragment": "F5",
      "backbone": true,
      "suspended_anchor_atom": null,
      "suspended_reason": null,
      "source_label": "F5/fragments[0]",
      "marker_id": "0",
      "side": "left",
      "connection_group": "$a",
      "marker_type_index": 2
    },
    {
      "id": 1,
      "bracket_kind": "backbone",
      "pairing_id": "F5/fragments[0]",
      "group_id": "$a:2",
      "ru_midpoint": [
        -1.5981267370666215,
        -7.698483246989999
      ],
      "bond_midpoint": [
        -0.7321234967301149,
        -7.698461688897541
      ],
      "orientation_vector": [
        0.0,
        1.0
      ],
      "half_bracket_size": 0.5000070589092322,
      "bond": [
        37,
        39
      ],
      "fragment": "F5",
      "backbone": true,
      "suspended_anchor_atom": null,
      "suspended_reason": null,
      "source_label": "F5/fragments[0]",
      "marker_id": "9",
      "side": "right",
      "connection_group": "$a",
      "marker_type_index": 2
    },
    {
      "id": 2,
      "bracket_kind": "backbone",
      "pairing_id": "F4/fragments[0]",
      "group_id": "$a:2",
      "ru_midpoint": [
        -1.5982996623478374,
        6.301250750482483
      ],
      "bond_midpoint": [
        -2.5312384788894575,
        6.551254279937098
      ],
      "orientation_vector": [
        0.0,
        1.0
      ],
      "half_bracket_size": 0.5000070589092322,
      "bond": [
        13,
        29
      ],
      "fragment": "F4",
      "backbone": true,
      "suspended_anchor_atom": null,
      "suspended_reason": null,
      "source_label": "F4/fragments[0]",
      "marker_id": "0",
      "side": "left",
      "connection_group": "$a",
      "marker_type_index": 2
    },
    {
      "id": 3,
      "bracket_kind": "backbone",
      "pairing_id": "F4/fragments[0]",
      "group_id": "$a:2",
      "ru_midpoint": [
        -1.5982996623478374,
        6.301250750482483
      ],
      "bond_midpoint": [
        -0.7322964220113308,
        6.30127230857494
      ],
      "orientation_vector": [
        0.0,
        1.0
      ],
      "half_bracket_size": 0.5000070589092322,
      "bond": [
        28,
        30
      ],
      "fragment": "F4",
      "backbone": true,
      "suspended_anchor_atom": null,
      "suspended_reason": null,
      "source_label": "F4/fragments[0]",
      "marker_id": "9",
      "side": "right",
      "connection_group": "$a",
      "marker_type_index": 2
    },
    {
      "id": 4,
      "bracket_kind": "backbone",
      "pairing_id": "F1/subMolblock",
      "group_id": "<1:3",
      "ru_midpoint": [
        -0.00011358111931725201,
        -0.19864956502068748
      ],
      "bond_midpoint": [
        -0.8660738029087929,
        -0.1985999999999999
      ],
      "orientation_vector": [
        0.0,
        1.0
      ],
      "half_bracket_size": 0.5000022368897259,
      "bond": [
        0,
        2
      ],
      "fragment": "F1",
      "backbone": true,
      "suspended_anchor_atom": null,
      "suspended_reason": null,
      "source_label": "F1/subMolblock",
      "marker_id": "0",
      "side": "left",
      "connection_group": "<1",
      "marker_type_index": 3
    },
    {
      "id": 5,
      "bracket_kind": "backbone",
      "pairing_id": "F1/subMolblock",
      "group_id": ">1:4",
      "ru_midpoint": [
        -0.00011358111931725201,
        -0.19864956502068748
      ],
      "bond_midpoint": [
        0.8659038910645114,
        -0.1985999999999999
      ],
      "orientation_vector": [
        0.0,
        1.0
      ],
      "half_bracket_size": 0.5000022368897259,
      "bond": [
        1,
        3
      ],
      "fragment": "F1",
      "backbone": true,
      "suspended_anchor_atom": null,
      "suspended_reason": null,
      "source_label": "F1/subMolblock",
      "marker_id": "29",
      "side": "right",
      "connection_group": ">1",
      "marker_type_index": 4
    }
  ]
}
