
     RDKit          2D

  0  0  0  0  0  0  0  0  0  0999 V3000
M  V30 BEGIN CTAB
M  V30 COUNTS 57 61 6 0 0
M  V30 BEGIN ATOM
M  V30 1 H -8.264415 -0.448599 0.000000 0
M  V30 2 H 8.264117 0.051408 0.000000 0
M  V30 3 C -7.398455 0.051408 0.000000 0
M  V30 4 C -6.532496 -0.448599 0.000000 0
M  V30 5 C -6.532496 -1.448601 0.000000 0
M  V30 6 C -7.398698 -1.948534 0.000000 0
M  V30 7 Cl -8.264700 -1.448665 0.000000 0
M  V30 8 C -7.398498 -2.948536 0.000000 0
M  V30 9 Cl -8.264700 -3.448669 0.000000 0
M  V30 10 C -6.532696 -3.448605 0.000000 0
M  V30 11 Cl -6.532696 -4.448607 0.000000 0
M  V30 12 C -5.666494 -2.948672 0.000000 0
M  V30 13 C -5.666694 -1.948670 0.000000 0
M  V30 14 C -4.378291 0.051408 0.000000 0
M  V30 15 C -3.512275 -0.448608 0.000000 0
M  V30 16 C -3.512275 -1.448459 0.000000 0
M  V30 17 C -4.378204 -1.948627 0.000000 0
M  V30 18 Cl -5.244133 -1.448943 0.000000 0
M  V30 19 C -4.377831 -2.948725 0.000000 0
M  V30 20 Cl -5.244033 -3.448819 0.000000 0
M  V30 21 C -3.511802 -3.448582 0.000000 0
M  V30 22 C -2.645873 -2.948415 0.000000 0
M  V30 23 Cl -1.779844 -3.448272 0.000000 0
M  V30 24 C -2.646146 -1.948490 0.000000 0
M  V30 25 C -1.337763 0.051408 0.000000 0
M  V30 26 C -0.471631 -0.448499 0.000000 0
M  V30 27 C -0.471631 -1.448301 0.000000 0
M  V30 28 C 0.394371 -1.948434 0.000000 0
M  V30 29 Cl 1.260373 -1.448365 0.000000 0
M  V30 30 C 0.394370 -2.948436 0.000000 0
M  V30 31 Cl 1.260372 -3.448369 0.000000 0
M  V30 32 C -0.471632 -3.448505 0.000000 0
M  V30 33 C -1.337633 -2.948371 0.000000 0
M  V30 34 C -1.337633 -1.948369 0.000000 0
M  V30 35 Cl -2.203634 -1.448436 0.000000 0
M  V30 36 C 3.438492 0.051408 0.000000 0
M  V30 37 C 4.304508 -0.448608 0.000000 0
M  V30 38 C 4.304508 -1.448633 0.000000 0
M  V30 39 C 5.170487 -1.948713 0.000000 0
M  V30 40 C 5.170314 -2.948638 0.000000 0
M  V30 41 Cl 6.036293 -3.448719 0.000000 0
M  V30 42 C 4.304235 -3.448755 0.000000 0
M  V30 43 Cl 4.304162 -4.448507 0.000000 0
M  V30 44 C 3.438256 -2.948675 0.000000 0
M  V30 45 Cl 2.572203 -3.448345 0.000000 0
M  V30 46 C 3.438529 -1.948577 0.000000 0
M  V30 47 C 6.531853 0.051408 0.000000 0
M  V30 48 C 7.397985 -0.448499 0.000000 0
M  V30 49 C 7.397985 -1.448301 0.000000 0
M  V30 50 C 8.263986 -1.948434 0.000000 0
M  V30 51 Cl 9.129988 -1.448365 0.000000 0
M  V30 52 C 8.263986 -2.948436 0.000000 0
M  V30 53 C 7.397983 -3.448505 0.000000 0
M  V30 54 Cl 7.397983 -4.448307 0.000000 0
M  V30 55 C 6.531982 -2.948371 0.000000 0
M  V30 56 C 6.531983 -1.948369 0.000000 0
M  V30 57 Cl 5.665981 -1.448436 0.000000 0
M  V30 END ATOM
M  V30 BEGIN BOND
M  V30 1 1 3 4
M  V30 2 1 4 5
M  V30 3 2 5 6
M  V30 4 1 6 7
M  V30 5 1 6 8
M  V30 6 1 8 9
M  V30 7 2 8 10
M  V30 8 1 10 11
M  V30 9 1 10 12
M  V30 10 2 12 13
M  V30 11 1 13 5
M  V30 12 1 14 15
M  V30 13 1 15 16
M  V30 14 2 16 17
M  V30 15 1 17 18
M  V30 16 1 17 19
M  V30 17 1 19 20
M  V30 18 2 19 21
M  V30 19 1 21 22
M  V30 20 1 22 23
M  V30 21 2 22 24
M  V30 22 1 24 16
M  V30 23 1 4 14
M  V30 24 1 25 26
M  V30 25 1 26 27
M  V30 26 2 27 28
M  V30 27 1 28 29
M  V30 28 1 28 30
M  V30 29 1 30 31
M  V30 30 2 30 32
M  V30 31 1 32 33
M  V30 32 2 33 34
M  V30 33 1 34 35
M  V30 34 1 34 27
M  V30 35 1 15 25
M  V30 36 1 36 37
M  V30 37 1 37 38
M  V30 38 2 38 39
M  V30 39 1 39 40
M  V30 40 1 40 41
M  V30 41 2 40 42
M  V30 42 1 42 43
M  V30 43 1 42 44
M  V30 44 1 44 45
M  V30 45 2 44 46
M  V30 46 1 46 38
M  V30 47 1 26 36
M  V30 48 1 47 48
M  V30 49 1 48 49
M  V30 50 2 49 50
M  V30 51 1 50 51
M  V30 52 1 50 52
M  V30 53 2 52 53
M  V30 54 1 53 54
M  V30 55 1 53 55
M  V30 56 2 55 56
M  V30 57 1 56 57
M  V30 58 1 56 49
M  V30 59 1 37 47
M  V30 60 1 1 3
M  V30 61 1 2 48
M  V30 END BOND
M  V30 BEGIN SGROUP
M  V30 1 SRU 0 ATOMS=(4 1 3 4 14) CBONDS=(2 23 60) -
M  V30 BRKXYZ=(9 -7.8314 0.3014 0 -7.8314 -0.6986 0 0 0 0) BRKXYZ=(9 -5.4554 0-
M  V30 .3014 0 -5.4554 -0.6986 0 0 0 0)
M  V30 2 SRU 0 ATOMS=(4 4 14 15 25) CBONDS=(2 23 35) -
M  V30 BRKXYZ=(9 -5.4554 0.3014 0 -5.4554 -0.6986 0 0 0 0) BRKXYZ=(9 -2.4250 0-
M  V30 .3014 0 -2.4250 -0.6986 0 0 0 0)
M  V30 3 SRU 0 ATOMS=(4 15 25 26 36) CBONDS=(2 35 47) -
M  V30 BRKXYZ=(9 -2.4250 0.3014 0 -2.4250 -0.6986 0 0 0 0) BRKXYZ=(9 1.4834 0.-
M  V30 3015 0 1.4834 -0.6986 0 0 0 0)
M  V30 4 SRU 0 ATOMS=(4 26 36 37 47) CBONDS=(2 47 59) -
M  V30 BRKXYZ=(9 1.4834 0.3015 0 1.4834 -0.6986 0 0 0 0) BRKXYZ=(9 5.4182 0.30-
M  V30 14 0 5.4182 -0.6986 0 0 0 0)
M  V30 5 SRU 0 ATOMS=(4 2 37 47 48) CBONDS=(2 59 61) -
M  V30 BRKXYZ=(9 5.4182 0.3014 0 5.4182 -0.6986 0 0 0 0) BRKXYZ=(9 7.8311 0.30-
M  V30 15 0 7.8311 -0.6986 0 0 0 0)
M  V30 6 SRU 0 ATOMS=(4 1 2 3 48) CBONDS=(2 60 61) -
M  V30 BRKXYZ=(9 -7.8314 4.3014 0 -7.8314 -4.6986 0 0 0 0) BRKXYZ=(9 7.8311 4.-
M  V30 3015 0 7.8311 -4.6986 0 0 0 0)
M  V30 END SGROUP
M  V30 END CTAB
M  END
>  <BIGSMILES_BRACKET_RECORDS_JSON>
{
  "records": [
    {
      "id": 0,
      "bracket_kind": "backbone",
      "pairing_id": "F1/fragments[0]",
      "group_id": "$a:2",
      "ru_midpoint": [
        -7.398445564155803,
        -0.28193054035700676
      ],
      "bond_midpoint": [
        -7.831435007913456,
        -0.19859553053324253
      ],
      "orientation_vector": [
        0.0,
        1.0
      ],
      "half_bracket_size": 0.5000159978427492,
      "bond": [
        0,
        2
      ],
      "fragment": "F1",
      "backbone": true,
      "suspended_anchor_atom": null,
      "suspended_reason": null,
      "source_label": "F1/fragments[0]",
      "marker_id": "0",
      "side": "left",
      "connection_group": "$a",
      "marker_type_index": 2
    },
    {
      "id": 1,
      "bracket_kind": "backbone",
      "pairing_id": "F1/fragments[0]",
      "group_id": "$a:2",
      "ru_midpoint": [
        -7.398445564155803,
        -0.28193054035700676
      ],
      "bond_midpoint": [
        -5.45539388116172,
        -0.1985955305332423
      ],
      "orientation_vector": [
        0.0,
        1.0
      ],
      "half_bracket_size": 0.5000159978427492,
      "bond": [
        3,
        13
      ],
      "fragment": "F1",
      "backbone": true,
      "suspended_anchor_atom": null,
      "suspended_reason": null,
      "source_label": "F1/fragments[0]",
      "marker_id": "12",
      "side": "right",
      "connection_group": "$a",
      "marker_type_index": 2
    },
    {
      "id": 2,
      "bracket_kind": "backbone",
      "pairing_id": "F1/fragments[1]",
      "group_id": "$a:2",
      "ru_midpoint": [
        -3.9452831517769336,
        -0.19860000000000078
      ],
      "bond_midpoint": [
        -5.45539388116172,
        -0.1985955305332423
      ],
      "orientation_vector": [
        0.0,
        1.0
      ],
      "half_bracket_size": 0.5000159978427492,
      "bond": [
        3,
        13
      ],
      "fragment": "F1",
      "backbone": true,
      "suspended_anchor_atom": null,
      "suspended_reason": null,
      "source_label": "F1/fragments[1]",
      "marker_id": "0",
      "side": "left",
      "connection_group": "$a",
      "marker_type_index": 2
    },
    {
      "id": 3,
      "bracket_kind": "backbone",
      "pairing_id": "F1/fragments[1]",
      "group_id": "$a:2",
      "ru_midpoint": [
        -3.9452831517769336,
        -0.19860000000000078
      ],
      "bond_midpoint": [
        -2.4250187529193123,
        -0.19860000000000055
      ],
      "orientation_vector": [
        0.0,
        1.0
      ],
      "half_bracket_size": 0.5000159978427492,
      "bond": [
        14,
        24
      ],
      "fragment": "F1",
      "backbone": true,
      "suspended_anchor_atom": null,
      "suspended_reason": null,
      "source_label": "F1/fragments[1]",
      "marker_id": "12",
      "side": "right",
      "connection_group": "$a",
      "marker_type_index": 2
    },
    {
      "id": 4,
      "bracket_kind": "backbone",
      "pairing_id": "F1/fragments[2]",
      "group_id": "$a:2",
      "ru_midpoint": [
        -0.9046965651685728,
        -0.19854535682331864
      ],
      "bond_midpoint": [
        -2.4250187529193123,
        -0.19860000000000055
      ],
      "orientation_vector": [
        0.0,
        1.0
      ],
      "half_bracket_size": 0.5000159978427492,
      "bond": [
        14,
        24
      ],
      "fragment": "F1",
      "backbone": true,
      "suspended_anchor_atom": null,
      "suspended_reason": null,
      "source_label": "F1/fragments[2]",
      "marker_id": "0",
      "side": "left",
      "connection_group": "$a",
      "marker_type_index": 2
    },
    {
      "id": 5,
      "bracket_kind": "backbone",
      "pairing_id": "F1/fragments[2]",
      "group_id": "$a:2",
      "ru_midpoint": [
        -0.9046965651685728,
        -0.19854535682331864
      ],
      "bond_midpoint": [
        1.4834306050839605,
        -0.19854535682331842
      ],
      "orientation_vector": [
        0.0,
        1.0
      ],
      "half_bracket_size": 0.5000159978427492,
      "bond": [
        25,
        35
      ],
      "fragment": "F1",
      "backbone": true,
      "suspended_anchor_atom": null,
      "suspended_reason": null,
      "source_label": "F1/fragments[2]",
      "marker_id": "12",
      "side": "right",
      "connection_group": "$a",
      "marker_type_index": 2
    },
    {
      "id": 6,
      "bracket_kind": "backbone",
      "pairing_id": "F1/fragments[3]",
      "group_id": "$a:2",
      "ru_midpoint": [
        3.871499986443375,
        -0.1985999999999999
      ],
      "bond_midpoint": [
        1.4834306050839605,
        -0.19854535682331842
      ],
      "orientation_vector": [
        0.0,
        1.0
      ],
      "half_bracket_size": 0.5000159978427492,
      "bond": [
        25,
        35
      ],
      "fragment": "F1",
      "backbone": true,
      "suspended_anchor_atom": null,
      "suspended_reason": null,
      "source_label": "F1/fragments[3]",
      "marker_id": "0",
      "side": "left",
      "connection_group": "$a",
      "marker_type_index": 2
    },
    {
      "id": 7,
      "bracket_kind": "backbone",
      "pairing_id": "F1/fragments[3]",
      "group_id": "$a:2",
      "ru_midpoint": [
        3.871499986443375,
        -0.1985999999999999
      ],
      "bond_midpoint": [
        5.418180400925995,
        -0.1985999999999999
      ],
      "orientation_vector": [
        0.0,
        1.0
      ],
      "half_bracket_size": 0.5000159978427492,
      "bond": [
        36,
        46
      ],
      "fragment": "F1",
      "backbone": true,
      "suspended_anchor_atom": null,
      "suspended_reason": null,
      "source_label": "F1/fragments[3]",
      "marker_id": "12",
      "side": "right",
      "connection_group": "$a",
      "marker_type_index": 2
    },
    {
      "id": 8,
      "bracket_kind": "backbone",
      "pairing_id": "F1/fragments[4]",
      "group_id": "$a:2",
      "ru_midpoint": [
        7.397996868416048,
        -0.1152240423084539
      ],
      "bond_midpoint": [
        5.418180400925995,
        -0.1985999999999999
      ],
      "orientation_vector": [
        0.0,
        1.0
      ],
      "half_bracket_size": 0.5000159978427492,
      "bond": [
        36,
        46
      ],
      "fragment": "F1",
      "backbone": true,
      "suspended_anchor_atom": null,
      "suspended_reason": null,
      "source_label": "F1/fragments[4]",
      "marker_id": "0",
      "side": "left",
      "connection_group": "$a",
      "marker_type_index": 2
    },
    {
      "id": 9,
      "bracket_kind": "backbone",
      "pairing_id": "F1/fragments[4]",
      "group_id": "$a:2",
      "ru_midpoint": [
        7.397996868416048,
        -0.1152240423084539
      ],
      "bond_midpoint": [
        7.831050718824612,
        -0.19854535682331775
      ],
      "orientation_vector": [
        0.0,
        1.0
      ],
      "half_bracket_size": 0.5000159978427492,
      "bond": [
        1,
        47
      ],
      "fragment": "F1",
      "backbone": true,
      "suspended_anchor_atom": null,
      "suspended_reason": null,
      "source_label": "F1/fragments[4]",
      "marker_id": "12",
      "side": "right",
      "connection_group": "$a",
      "marker_type_index": 2
    },
    {
      "id": 10,
      "bracket_kind": "backbone",
      "pairing_id": "F1/connected",
      "group_id": "$overall",
      "ru_midpoint": [
        -0.1631502871725541,
        -0.19857726652444618
      ],
      "bond_midpoint": [
        -7.831435007913456,
        -0.19859553053324253
      ],
      "orientation_vector": [
        0.0,
        1.0
      ],
      "half_bracket_size": 4.5000154589004335,
      "bond": [
        0,
        2
      ],
      "fragment": "F1",
      "backbone": true,
      "suspended_anchor_atom": null,
      "suspended_reason": null,
      "source_label": "F1/connected",
      "marker_id": "connected-overall-left",
      "side": "left",
      "connection_group": "$overall",
      "marker_type_index": null
    },
    {
      "id": 11,
      "bracket_kind": "backbone",
      "pairing_id": "F1/connected",
      "group_id": "$overall",
      "ru_midpoint": [
        -0.1631502871725541,
        -0.19857726652444618
      ],
      "bond_midpoint": [
        7.831050718824612,
        -0.19854535682331775
      ],
      "orientation_vector": [
        0.0,
        1.0
      ],
      "half_bracket_size": 4.5000154589004335,
      "bond": [
        1,
        47
      ],
      "fragment": "F1",
      "backbone": true,
      "suspended_anchor_atom": null,
      "suspended_reason": null,
      "source_label": "F1/connected",
      "marker_id": "connected-overall-right",
      "side": "right",
      "connection_group": "$overall",
      "marker_type_index": null
    }
  ]
}
