
     RDKit          2D

  0  0  0  0  0  0  0  0  0  0999 V3000
M  V30 BEGIN CTAB
M  V30 COUNTS 22 23 1 0 0
M  V30 BEGIN ATOM
M  V30 1 H -5.433310 -0.515528 0.000000 0
M  V30 2 H 5.298747 -0.015528 0.000000 0
M  V30 3 O -4.433310 -0.015528 0.000000 0
M  V30 4 C -3.433310 -0.015528 0.000000 0
M  V30 5 C -2.933305 -0.881561 0.000000 0
M  V30 6 Cl -3.433307 -1.747589 0.000000 0
M  V30 7 C -1.933297 -0.881561 0.000000 0
M  V30 8 C -1.433293 -0.015528 0.000000 0
M  V30 9 C -1.933297 0.850505 0.000000 0
M  V30 10 C -2.933305 0.850505 0.000000 0
M  V30 11 C -0.433293 -0.015528 0.000000 0
M  V30 12 C -0.433293 0.984397 0.000000 0
M  V30 13 C -0.433293 -1.015571 0.000000 0
M  V30 14 C 0.566707 -0.015528 0.000000 0
M  V30 15 C 1.066720 -0.881575 0.000000 0
M  V30 16 C 2.066745 -0.881575 0.000000 0
M  V30 17 C 2.566757 -0.015528 0.000000 0
M  V30 18 C 2.066745 0.850519 0.000000 0
M  V30 19 C 1.066720 0.850519 0.000000 0
M  V30 20 O 3.566757 -0.015528 0.000000 0
M  V30 21 C 4.432752 -0.515431 0.000000 0
M  V30 22 O 4.432747 -1.515438 0.000000 0
M  V30 END ATOM
M  V30 BEGIN BOND
M  V30 1 1 3 4
M  V30 2 2 4 5
M  V30 3 1 5 6
M  V30 4 1 5 7
M  V30 5 2 7 8
M  V30 6 1 8 9
M  V30 7 2 9 10
M  V30 8 1 8 11
M  V30 9 1 11 12
M  V30 10 1 11 13
M  V30 11 1 11 14
M  V30 12 2 14 15
M  V30 13 1 15 16
M  V30 14 2 16 17
M  V30 15 1 17 18
M  V30 16 2 18 19
M  V30 17 1 17 20
M  V30 18 1 20 21
M  V30 19 2 21 22
M  V30 20 1 10 4
M  V30 21 1 19 14
M  V30 22 1 1 3
M  V30 23 1 2 21
M  V30 END BOND
M  V30 BEGIN SGROUP
M  V30 1 SRU 0 ATOMS=(4 1 2 3 21) CBONDS=(2 22 23) -
M  V30 BRKXYZ=(9 -4.9333 1.4666 0 -4.9333 -1.9976 0 0 0 0) BRKXYZ=(9 4.8657 1.-
M  V30 4666 0 4.8657 -1.9976 0 0 0 0)
M  V30 END SGROUP
M  V30 END CTAB
M  END
>  <BIGSMILES_BRACKET_RECORDS_JSON>
{
  "records": [
    {
      "id": 0,
      "bracket_kind": "backbone",
      "pairing_id": "F1/mergedFragments[0]",
      "group_id": "<1:3",
      "ru_midpoint": [
        -0.18185023993827132,
        -0.5155422062426452
      ],
      "bond_midpoint": [
        -4.933309523477576,
        -0.2655280927850363
      ],
      "orientation_vector": [
        0.0,
        1.0
      ],
      "half_bracket_size": 1.732094110135113,
      "bond": [
        0,
        2
      ],
      "fragment": "F1",
      "backbone": true,
      "suspended_anchor_atom": null,
      "suspended_reason": null,
      "source_label": "F1/mergedFragments[0]",
      "marker_id": "0",
      "side": "left",
      "connection_group": "<1",
      "marker_type_index": 3
    },
    {
      "id": 1,
      "bracket_kind": "backbone",
      "pairing_id": "F1/mergedFragments[0]",
      "group_id": ">1:4",
      "ru_midpoint": [
        -0.18185023993827132,
        -0.5155422062426452
      ],
      "bond_midpoint": [
        4.865749913184649,
        -0.26547971304850604
      ],
      "orientation_vector": [
        0.0,
        1.0
      ],
      "half_bracket_size": 1.732094110135113,
      "bond": [
        1,
        20
      ],
      "fragment": "F1",
      "backbone": true,
      "suspended_anchor_atom": null,
      "suspended_reason": null,
      "source_label": "F1/mergedFragments[0]",
      "marker_id": "21",
      "side": "right",
      "connection_group": ">1",
      "marker_type_index": 4
    }
  ]
}
