
     RDKit          2D

  0  0  0  0  0  0  0  0  0  0999 V3000
M  V30 BEGIN CTAB
M  V30 COUNTS 11 10 1 0 0
M  V30 BEGIN ATOM
M  V30 1 H -2.393435 -0.448594 0.000000 0
M  V30 2 H 2.393061 0.051394 0.000000 0
M  V30 3 C -0.797936 0.051394 0.000000 0
M  V30 4 F -0.797936 1.051372 0.000000 0
M  V30 5 F -0.797936 -0.948606 0.000000 0
M  V30 6 C 0.797563 -0.448594 0.000000 0
M  V30 7 F 0.797563 0.551383 0.000000 0
M  V30 8 C 0.797563 -1.448572 0.000000 0
M  V30 9 F -0.202415 -1.448572 0.000000 0
M  V30 10 F 0.297552 -2.314592 0.000000 0
M  V30 11 F 1.663582 -1.948583 0.000000 0
M  V30 END ATOM
M  V30 BEGIN BOND
M  V30 1 1 3 4
M  V30 2 1 3 5
M  V30 3 1 3 6
M  V30 4 1 6 7
M  V30 5 1 6 8
M  V30 6 1 8 9
M  V30 7 1 8 10
M  V30 8 1 8 11
M  V30 9 1 1 3
M  V30 10 1 2 6
M  V30 END BOND
M  V30 BEGIN SGROUP
M  V30 1 SRU 0 ATOMS=(4 1 2 3 6) CBONDS=(2 9 10) -
M  V30 BRKXYZ=(9 -1.5957 0.3014 0 -1.5957 -0.6986 0 0 0 0) BRKXYZ=(9 1.5953 0.-
M  V30 3014 0 1.5953 -0.6986 0 0 0 0)
M  V30 END SGROUP
M  V30 END CTAB
M  END
>  <BIGSMILES_BRACKET_RECORDS_JSON>
{
  "records": [
    {
      "id": 0,
      "bracket_kind": "backbone",
      "pairing_id": "F1/fragments[0]",
      "group_id": "$a:2",
      "ru_midpoint": [
        -0.00018990786586126074,
        -0.19860550006049968
      ],
      "bond_midpoint": [
        -1.5956852709902836,
        -0.1985999999999999
      ],
      "orientation_vector": [
        0.0,
        1.0
      ],
      "half_bracket_size": 0.4999889997176581,
      "bond": [
        0,
        2
      ],
      "fragment": "F1",
      "backbone": true,
      "suspended_anchor_atom": null,
      "suspended_reason": null,
      "source_label": "F1/fragments[0]",
      "marker_id": "0",
      "side": "left",
      "connection_group": "$a",
      "marker_type_index": 2
    },
    {
      "id": 1,
      "bracket_kind": "backbone",
      "pairing_id": "F1/fragments[0]",
      "group_id": "$a:2",
      "ru_midpoint": [
        -0.00018990786586126074,
        -0.19860550006049968
      ],
      "bond_midpoint": [
        1.59531180622796,
        -0.1985999999999999
      ],
      "orientation_vector": [
        0.0,
        1.0
      ],
      "half_bracket_size": 0.4999889997176581,
      "bond": [
        1,
        5
      ],
      "fragment": "F1",
      "backbone": true,
      "suspended_anchor_atom": null,
      "suspended_reason": null,
      "source_label": "F1/fragments[0]",
      "marker_id": "10",
      "side": "right",
      "connection_group": "$a",
      "marker_type_index": 2
    }
  ]
}
