
     RDKit          2D

  0  0  0  0  0  0  0  0  0  0999 V3000
M  V30 BEGIN CTAB
M  V30 COUNTS 14 15 1 0 0
M  V30 BEGIN ATOM
M  V30 1 H -1.299340 -0.448581 0.000000 0
M  V30 2 H 1.298913 0.051381 0.000000 0
M  V30 3 C -0.433256 0.051381 0.000000 0
M  V30 4 C 0.432829 -0.448581 0.000000 0
M  V30 5 C 0.432829 -1.448582 0.000000 0
M  V30 6 C 1.298829 -1.948489 0.000000 0
M  V30 7 C 1.298829 -2.948489 0.000000 0
M  V30 8 C 0.432828 -3.448382 0.000000 0
M  V30 9 C -0.433172 -2.948675 0.000000 0
M  V30 10 C -0.433172 -1.948474 0.000000 0
M  V30 11 C -1.299172 -1.448567 0.000000 0
M  V30 12 C -2.165172 -1.948460 0.000000 0
M  V30 13 C -2.165172 -2.948460 0.000000 0
M  V30 14 C -1.299172 -3.448368 0.000000 0
M  V30 END ATOM
M  V30 BEGIN BOND
M  V30 1 1 3 4
M  V30 2 1 4 5
M  V30 3 2 5 6
M  V30 4 1 6 7
M  V30 5 2 7 8
M  V30 6 1 8 9
M  V30 7 2 9 10
M  V30 8 1 10 11
M  V30 9 2 11 12
M  V30 10 1 12 13
M  V30 11 2 13 14
M  V30 12 1 10 5
M  V30 13 1 14 9
M  V30 14 1 1 3
M  V30 15 1 2 4
M  V30 END BOND
M  V30 BEGIN SGROUP
M  V30 1 SRU 0 ATOMS=(4 1 2 3 4) CBONDS=(2 14 15) -
M  V30 BRKXYZ=(9 -0.8663 0.3014 0 -0.8663 -0.6986 0 0 0 0) BRKXYZ=(9 0.8659 0.-
M  V30 3014 0 0.8659 -0.6986 0 0 0 0)
M  V30 END SGROUP
M  V30 END CTAB
M  END
>  <BIGSMILES_BRACKET_RECORDS_JSON>
{
  "records": [
    {
      "id": 0,
      "bracket_kind": "backbone",
      "pairing_id": "F1/fragments[0]",
      "group_id": "$a:2",
      "ru_midpoint": [
        -0.00020997260974064957,
        -0.1985939156855916
      ],
      "bond_midpoint": [
        -0.8662975470780012,
        -0.1985999999999999
      ],
      "orientation_vector": [
        0.0,
        1.0
      ],
      "half_bracket_size": 0.4999623982515988,
      "bond": [
        0,
        2
      ],
      "fragment": "F1",
      "backbone": true,
      "suspended_anchor_atom": null,
      "suspended_reason": null,
      "source_label": "F1/fragments[0]",
      "marker_id": "0",
      "side": "left",
      "connection_group": "$a",
      "marker_type_index": 2
    },
    {
      "id": 1,
      "bracket_kind": "backbone",
      "pairing_id": "F1/fragments[0]",
      "group_id": "$a:2",
      "ru_midpoint": [
        -0.00020997260974064957,
        -0.1985939156855916
      ],
      "bond_midpoint": [
        0.8658705744789218,
        -0.1985999999999999
      ],
      "orientation_vector": [
        0.0,
        1.0
      ],
      "half_bracket_size": 0.4999623982515988,
      "bond": [
        1,
        3
      ],
      "fragment": "F1",
      "backbone": true,
      "suspended_anchor_atom": null,
      "suspended_reason": null,
      "source_label": "F1/fragments[0]",
      "marker_id": "13",
      "side": "right",
      "connection_group": "$a",
      "marker_type_index": 2
    }
  ]
}
