
     RDKit          2D

  0  0  0  0  0  0  0  0  0  0999 V3000
M  V30 BEGIN CTAB
M  V30 COUNTS 27 28 1 0 0
M  V30 BEGIN ATOM
M  V30 1 H -5.527321 0.118231 0.000000 0
M  V30 2 H 5.408276 -0.381769 0.000000 0
M  V30 3 O -4.527321 -0.381769 0.000000 0
M  V30 4 C -3.527321 -0.381769 0.000000 0
M  V30 5 C -3.027170 0.484517 0.000000 0
M  V30 6 C -2.026869 0.484517 0.000000 0
M  V30 7 C -1.526718 -0.381769 0.000000 0
M  V30 8 C -2.026869 -1.248055 0.000000 0
M  V30 9 C -3.027170 -1.248055 0.000000 0
M  V30 10 C -0.339121 -0.381769 0.000000 0
M  V30 11 C -0.339121 0.801727 0.000000 0
M  V30 12 F -0.815980 1.674275 0.000000 0
M  V30 13 F 0.393273 1.293477 0.000000 0
M  V30 14 Cl -1.292724 0.890508 0.000000 0
M  V30 15 C -0.339121 -1.381769 0.000000 0
M  V30 16 F -0.826190 -2.296895 0.000000 0
M  V30 17 F 0.509948 -1.992496 0.000000 0
M  V30 18 Cl -1.322819 -1.452197 0.000000 0
M  V30 19 C 0.660879 -0.381769 0.000000 0
M  V30 20 C 1.158977 0.480962 0.000000 0
M  V30 21 C 2.155174 0.480962 0.000000 0
M  V30 22 C 2.653272 -0.381769 0.000000 0
M  V30 23 C 2.155174 -1.244500 0.000000 0
M  V30 24 C 1.158977 -1.244500 0.000000 0
M  V30 25 O 3.653272 -0.381769 0.000000 0
M  V30 26 C 4.530774 0.124857 0.000000 0
M  V30 27 O 4.534647 1.129639 0.000000 0
M  V30 END ATOM
M  V30 BEGIN BOND
M  V30 1 1 3 4
M  V30 2 2 4 5
M  V30 3 1 5 6
M  V30 4 2 6 7
M  V30 5 1 7 8
M  V30 6 2 8 9
M  V30 7 1 7 10
M  V30 8 1 10 11
M  V30 9 1 11 12
M  V30 10 1 11 13
M  V30 11 1 11 14
M  V30 12 1 10 15
M  V30 13 1 15 16
M  V30 14 1 15 17
M  V30 15 1 15 18
M  V30 16 1 10 19
M  V30 17 2 19 20
M  V30 18 1 20 21
M  V30 19 2 21 22
M  V30 20 1 22 23
M  V30 21 2 23 24
M  V30 22 1 22 25
M  V30 23 1 25 26
M  V30 24 2 26 27
M  V30 25 1 9 4
M  V30 26 1 24 19
M  V30 27 1 1 3
M  V30 28 1 2 26
M  V30 END BOND
M  V30 BEGIN SGROUP
M  V30 1 SRU 0 ATOMS=(4 1 2 3 26) CBONDS=(2 27 28) -
M  V30 BRKXYZ=(9 -5.0273 1.6008 0 -5.0273 -1.8643 0 0 0 0) BRKXYZ=(9 4.9695 1.-
M  V30 6041 0 4.9695 -1.8610 0 0 0 0)
M  V30 END SGROUP
M  V30 END CTAB
M  END
>  <BIGSMILES_BRACKET_RECORDS_JSON>
{
  "records": [
    {
      "id": 0,
      "bracket_kind": "backbone",
      "pairing_id": "F1/mergedFragments[0]",
      "group_id": "<1:3",
      "ru_midpoint": [
        -0.16500099735593565,
        -0.3813801421824227
      ],
      "bond_midpoint": [
        -5.027320987442001,
        -0.13176889931238736
      ],
      "orientation_vector": [
        0.0,
        1.0
      ],
      "half_bracket_size": 1.732572651950667,
      "bond": [
        0,
        2
      ],
      "fragment": "F1",
      "backbone": true,
      "suspended_anchor_atom": null,
      "suspended_reason": null,
      "source_label": "F1/mergedFragments[0]",
      "marker_id": "0",
      "side": "left",
      "connection_group": "<1",
      "marker_type_index": 3
    },
    {
      "id": 1,
      "bracket_kind": "backbone",
      "pairing_id": "F1/mergedFragments[0]",
      "group_id": ">1:4",
      "ru_midpoint": [
        -0.16500099735593565,
        -0.3813801421824227
      ],
      "bond_midpoint": [
        4.969524901295877,
        -0.1284558814866128
      ],
      "orientation_vector": [
        0.0,
        1.0
      ],
      "half_bracket_size": 1.732572651950667,
      "bond": [
        1,
        25
      ],
      "fragment": "F1",
      "backbone": true,
      "suspended_anchor_atom": null,
      "suspended_reason": null,
      "source_label": "F1/mergedFragments[0]",
      "marker_id": "26",
      "side": "right",
      "connection_group": ">1",
      "marker_type_index": 4
    }
  ]
}
