
     RDKit          2D

  0  0  0  0  0  0  0  0  0  0999 V3000
M  V30 BEGIN CTAB
M  V30 COUNTS 13 13 1 0 0
M  V30 BEGIN ATOM
M  V30 1 H -1.299206 -0.448550 0.000000 0
M  V30 2 H 1.298807 0.051350 0.000000 0
M  V30 3 C -0.433202 0.051350 0.000000 0
M  V30 4 F -0.433202 1.051282 0.000000 0
M  V30 5 F -0.433202 -0.948675 0.000000 0
M  V30 6 C 0.432803 -0.448550 0.000000 0
M  V30 7 F 0.432803 0.551482 0.000000 0
M  V30 8 C 0.432803 -1.448475 0.000000 0
M  V30 9 C -0.433263 -1.948406 0.000000 0
M  V30 10 C -0.433436 -2.948430 0.000000 0
M  V30 11 C 0.432629 -3.448424 0.000000 0
M  V30 12 C 1.298695 -2.948494 0.000000 0
M  V30 13 C 1.298695 -1.948569 0.000000 0
M  V30 END ATOM
M  V30 BEGIN BOND
M  V30 1 1 3 4
M  V30 2 1 3 5
M  V30 3 1 3 6
M  V30 4 1 6 7
M  V30 5 1 6 8
M  V30 6 2 8 9
M  V30 7 1 9 10
M  V30 8 2 10 11
M  V30 9 1 11 12
M  V30 10 2 12 13
M  V30 11 1 13 8
M  V30 12 1 1 3
M  V30 13 1 2 6
M  V30 END BOND
M  V30 BEGIN SGROUP
M  V30 1 SRU 0 ATOMS=(4 1 2 3 6) CBONDS=(2 12 13) -
M  V30 BRKXYZ=(9 -0.8662 0.3013 0 -0.8662 -0.6985 0 0 0 0) BRKXYZ=(9 0.8658 0.-
M  V30 3013 0 0.8658 -0.6985 0 0 0 0)
M  V30 END SGROUP
M  V30 END CTAB
M  END
>  <BIGSMILES_BRACKET_RECORDS_JSON>
{
  "records": [
    {
      "id": 0,
      "bracket_kind": "backbone",
      "pairing_id": "F1/fragments[0]",
      "group_id": "$a:2",
      "ru_midpoint": [
        -0.00019943418023105064,
        -0.19860000000000005
      ],
      "bond_midpoint": [
        -0.8662037933012552,
        -0.19860000000000005
      ],
      "orientation_vector": [
        0.0,
        1.0
      ],
      "half_bracket_size": 0.4999001600153621,
      "bond": [
        0,
        2
      ],
      "fragment": "F1",
      "backbone": true,
      "suspended_anchor_atom": null,
      "suspended_reason": null,
      "source_label": "F1/fragments[0]",
      "marker_id": "0",
      "side": "left",
      "connection_group": "$a",
      "marker_type_index": 2
    },
    {
      "id": 1,
      "bracket_kind": "backbone",
      "pairing_id": "F1/fragments[0]",
      "group_id": "$a:2",
      "ru_midpoint": [
        -0.00019943418023105064,
        -0.19860000000000005
      ],
      "bond_midpoint": [
        0.8658049249407929,
        -0.19860000000000005
      ],
      "orientation_vector": [
        0.0,
        1.0
      ],
      "half_bracket_size": 0.4999001600153621,
      "bond": [
        1,
        5
      ],
      "fragment": "F1",
      "backbone": true,
      "suspended_anchor_atom": null,
      "suspended_reason": null,
      "source_label": "F1/fragments[0]",
      "marker_id": "12",
      "side": "right",
      "connection_group": "$a",
      "marker_type_index": 2
    }
  ]
}
