
     RDKit          2D

  0  0  0  0  0  0  0  0  0  0999 V3000
M  V30 BEGIN CTAB
M  V30 COUNTS 38 43 1 0 0
M  V30 BEGIN ATOM
M  V30 1 H -8.168057 -0.698699 0.000000 0
M  V30 2 H 8.167658 -0.198466 0.000000 0
M  V30 3 N -7.168057 -0.698618 0.000000 0
M  V30 4 C -6.580316 0.110483 0.000000 0
M  V30 5 O -6.889286 1.061431 0.000000 0
M  V30 6 C -5.629206 -0.198665 0.000000 0
M  V30 7 C -4.763270 0.301499 0.000000 0
M  V30 8 C -3.897183 -0.198679 0.000000 0
M  V30 9 C -2.946317 0.110412 0.000000 0
M  V30 10 O -2.637369 1.061588 0.000000 0
M  V30 11 N -2.358479 -0.698547 0.000000 0
M  V30 12 C -2.946219 -1.507648 0.000000 0
M  V30 13 O -2.637186 -2.458575 0.000000 0
M  V30 14 C -3.897230 -1.198673 0.000000 0
M  V30 15 C -4.763266 -1.698663 0.000000 0
M  V30 16 C -5.629254 -1.198660 0.000000 0
M  V30 17 C -6.580219 -1.507577 0.000000 0
M  V30 18 O -6.889214 -2.458581 0.000000 0
M  V30 19 C -1.358479 -0.698466 0.000000 0
M  V30 20 C -1.358479 -1.698455 0.000000 0
M  V30 21 C -0.492463 -2.198450 0.000000 0
M  V30 22 C 0.373553 -1.698455 0.000000 0
M  V30 23 C 0.373553 -0.698466 0.000000 0
M  V30 24 C -0.492463 -0.198472 0.000000 0
M  V30 25 O 1.239578 -0.198466 0.000000 0
M  V30 26 C 2.105604 -0.698466 0.000000 0
M  V30 27 C 2.105604 -1.698455 0.000000 0
M  V30 28 C 2.971620 -2.198450 0.000000 0
M  V30 29 C 3.837636 -1.698455 0.000000 0
M  V30 30 C 3.837636 -0.698466 0.000000 0
M  V30 31 C 2.971620 -0.198472 0.000000 0
M  V30 32 O 4.703661 -0.198466 0.000000 0
M  V30 33 C 5.569687 -0.698466 0.000000 0
M  V30 34 C 5.569687 -1.698405 0.000000 0
M  V30 35 C 6.435659 -2.198375 0.000000 0
M  V30 36 C 7.301632 -1.698405 0.000000 0
M  V30 37 C 7.301632 -0.698466 0.000000 0
M  V30 38 C 6.435659 -0.198497 0.000000 0
M  V30 END ATOM
M  V30 BEGIN BOND
M  V30 1 1 3 4
M  V30 2 2 4 5
M  V30 3 1 4 6
M  V30 4 2 6 7
M  V30 5 1 7 8
M  V30 6 1 8 9
M  V30 7 2 9 10
M  V30 8 1 9 11
M  V30 9 1 11 12
M  V30 10 2 12 13
M  V30 11 1 12 14
M  V30 12 1 14 15
M  V30 13 2 15 16
M  V30 14 1 16 17
M  V30 15 2 17 18
M  V30 16 1 11 19
M  V30 17 2 19 20
M  V30 18 1 20 21
M  V30 19 2 21 22
M  V30 20 1 22 23
M  V30 21 2 23 24
M  V30 22 1 23 25
M  V30 23 1 25 26
M  V30 24 2 26 27
M  V30 25 1 27 28
M  V30 26 2 28 29
M  V30 27 1 29 30
M  V30 28 2 30 31
M  V30 29 1 30 32
M  V30 30 1 32 33
M  V30 31 2 33 34
M  V30 32 1 34 35
M  V30 33 2 35 36
M  V30 34 1 36 37
M  V30 35 2 37 38
M  V30 36 1 17 3
M  V30 37 1 24 19
M  V30 38 1 16 6
M  V30 39 1 31 26
M  V30 40 2 14 8
M  V30 41 1 38 33
M  V30 42 1 1 3
M  V30 43 1 2 37
M  V30 END BOND
M  V30 BEGIN SGROUP
M  V30 1 SRU 0 ATOMS=(4 1 2 3 37) CBONDS=(2 42 43) -
M  V30 BRKXYZ=(9 -7.6681 1.8013 0 -7.6681 -3.1986 0 0 0 0) BRKXYZ=(9 7.7346 2.-
M  V30 0515 0 7.7346 -2.9484 0 0 0 0)
M  V30 END SGROUP
M  V30 END CTAB
M  END
>  <BIGSMILES_BRACKET_RECORDS_JSON>
{
  "records": [
    {
      "id": 0,
      "bracket_kind": "backbone",
      "pairing_id": "F1/mergedFragments[0]",
      "group_id": "<1:3",
      "ru_midpoint": [
        0.06684470418320743,
        -0.9191052298495197
      ],
      "bond_midpoint": [
        -7.668056506480112,
        -0.6986581414869807
      ],
      "orientation_vector": [
        0.0,
        1.0
      ],
      "half_bracket_size": 2.4999486227713703,
      "bond": [
        0,
        2
      ],
      "fragment": "F1",
      "backbone": true,
      "suspended_anchor_atom": null,
      "suspended_reason": null,
      "source_label": "F1/mergedFragments[0]",
      "marker_id": "0",
      "side": "left",
      "connection_group": "<1",
      "marker_type_index": 3
    },
    {
      "id": 1,
      "bracket_kind": "backbone",
      "pairing_id": "F1/mergedFragments[0]",
      "group_id": ">1:4",
      "ru_midpoint": [
        0.06684470418320743,
        -0.9191052298495197
      ],
      "bond_midpoint": [
        7.734644934590523,
        -0.4484662028081342
      ],
      "orientation_vector": [
        0.0,
        1.0
      ],
      "half_bracket_size": 2.4999486227713703,
      "bond": [
        1,
        36
      ],
      "fragment": "F1",
      "backbone": true,
      "suspended_anchor_atom": null,
      "suspended_reason": null,
      "source_label": "F1/mergedFragments[0]",
      "marker_id": "37",
      "side": "right",
      "connection_group": ">1",
      "marker_type_index": 4
    }
  ]
}
