
     RDKit          2D

  0  0  0  0  0  0  0  0  0  0999 V3000
M  V30 BEGIN CTAB
M  V30 COUNTS 8 8 1 0 0
M  V30 BEGIN ATOM
M  V30 1 H -2.000185 -0.631606 0.000000 0
M  V30 2 H 1.999786 -0.631606 0.000000 0
M  V30 3 N -1.000185 -0.631606 0.000000 0
M  V30 4 B -0.500192 0.234406 0.000000 0
M  V30 5 N 0.499793 0.234406 0.000000 0
M  V30 6 B 0.999786 -0.631606 0.000000 0
M  V30 7 N 0.499793 -1.497619 0.000000 0
M  V30 8 B -0.500192 -1.497619 0.000000 0
M  V30 END ATOM
M  V30 BEGIN BOND
M  V30 1 1 3 4
M  V30 2 1 4 5
M  V30 3 1 5 6
M  V30 4 1 6 7
M  V30 5 1 7 8
M  V30 6 1 8 3
M  V30 7 1 1 3
M  V30 8 1 2 6
M  V30 END BOND
M  V30 BEGIN SGROUP
M  V30 1 SRU 0 ATOMS=(4 1 2 3 6) CBONDS=(2 7 8) -
M  V30 BRKXYZ=(9 -1.5002 1.1004 0 -1.5002 -2.3636 0 0 0 0) BRKXYZ=(9 1.4998 1.-
M  V30 1004 0 1.4998 -2.3636 0 0 0 0)
M  V30 END SGROUP
M  V30 END CTAB
M  END
>  <BIGSMILES_BRACKET_RECORDS_JSON>
{
  "records": [
    {
      "id": 0,
      "bracket_kind": "backbone",
      "pairing_id": "F1/fragments[0]",
      "group_id": "<1:3",
      "ru_midpoint": [
        -0.00019943418023099513,
        -0.6316064719038147
      ],
      "bond_midpoint": [
        -1.5001850466383013,
        -0.6316064719038144
      ],
      "orientation_vector": [
        0.0,
        1.0
      ],
      "half_bracket_size": 1.732025887615259,
      "bond": [
        0,
        2
      ],
      "fragment": "F1",
      "backbone": true,
      "suspended_anchor_atom": null,
      "suspended_reason": null,
      "source_label": "F1/fragments[0]",
      "marker_id": "0",
      "side": "left",
      "connection_group": "<1",
      "marker_type_index": 3
    },
    {
      "id": 1,
      "bracket_kind": "backbone",
      "pairing_id": "F1/fragments[0]",
      "group_id": ">1:4",
      "ru_midpoint": [
        -0.00019943418023099513,
        -0.6316064719038147
      ],
      "bond_midpoint": [
        1.499786178277839,
        -0.631606471903815
      ],
      "orientation_vector": [
        0.0,
        1.0
      ],
      "half_bracket_size": 1.732025887615259,
      "bond": [
        1,
        5
      ],
      "fragment": "F1",
      "backbone": true,
      "suspended_anchor_atom": null,
      "suspended_reason": null,
      "source_label": "F1/fragments[0]",
      "marker_id": "7",
      "side": "right",
      "connection_group": ">1",
      "marker_type_index": 4
    }
  ]
}
