
     RDKit          2D

  0  0  0  0  0  0  0  0  0  0999 V3000
M  V30 BEGIN CTAB
M  V30 COUNTS 25 27 1 0 0
M  V30 BEGIN ATOM
M  V30 1 H -6.567176 0.118381 0.000000 0
M  V30 2 H 6.432805 -0.381619 0.000000 0
M  V30 3 O -5.567176 -0.381619 0.000000 0
M  V30 4 C -4.567176 -0.381619 0.000000 0
M  V30 5 C -4.067183 0.484395 0.000000 0
M  V30 6 C -3.067196 0.484395 0.000000 0
M  V30 7 C -2.567202 -0.381619 0.000000 0
M  V30 8 C -3.067196 -1.247634 0.000000 0
M  V30 9 C -4.067183 -1.247634 0.000000 0
M  V30 10 O -1.567202 -0.381619 0.000000 0
M  V30 11 C -0.567202 -0.381619 0.000000 0
M  V30 12 C -0.067208 0.484395 0.000000 0
M  V30 13 C 0.932779 0.484395 0.000000 0
M  V30 14 C 1.432773 -0.381619 0.000000 0
M  V30 15 C 0.932779 -1.247634 0.000000 0
M  V30 16 C -0.067208 -1.247634 0.000000 0
M  V30 17 S 2.432773 -0.381619 0.000000 0
M  V30 18 O 2.432773 0.618381 0.000000 0
M  V30 19 O 2.432773 -1.381619 0.000000 0
M  V30 20 C 3.432773 -0.381619 0.000000 0
M  V30 21 C 3.932781 0.484420 0.000000 0
M  V30 22 C 4.932797 0.484420 0.000000 0
M  V30 23 C 5.432805 -0.381619 0.000000 0
M  V30 24 C 4.932797 -1.247659 0.000000 0
M  V30 25 C 3.932781 -1.247659 0.000000 0
M  V30 END ATOM
M  V30 BEGIN BOND
M  V30 1 1 3 4
M  V30 2 2 4 5
M  V30 3 1 5 6
M  V30 4 2 6 7
M  V30 5 1 7 8
M  V30 6 2 8 9
M  V30 7 1 7 10
M  V30 8 1 10 11
M  V30 9 2 11 12
M  V30 10 1 12 13
M  V30 11 2 13 14
M  V30 12 1 14 15
M  V30 13 2 15 16
M  V30 14 1 14 17
M  V30 15 2 17 18
M  V30 16 2 17 19
M  V30 17 1 17 20
M  V30 18 2 20 21
M  V30 19 1 21 22
M  V30 20 2 22 23
M  V30 21 1 23 24
M  V30 22 2 24 25
M  V30 23 1 9 4
M  V30 24 1 16 11
M  V30 25 1 25 20
M  V30 26 1 1 3
M  V30 27 1 2 23
M  V30 END BOND
M  V30 BEGIN SGROUP
M  V30 1 SRU 0 ATOMS=(4 1 2 3 23) CBONDS=(2 26 27) -
M  V30 BRKXYZ=(9 -6.0672 1.6005 0 -6.0672 -1.8637 0 0 0 0) BRKXYZ=(9 5.9328 1.-
M  V30 3505 0 5.9328 -2.1137 0 0 0 0)
M  V30 END SGROUP
M  V30 END CTAB
M  END
>  <BIGSMILES_BRACKET_RECORDS_JSON>
{
  "records": [
    {
      "id": 0,
      "bracket_kind": "backbone",
      "pairing_id": "F1/mergedFragments[0]",
      "group_id": "<1:3",
      "ru_midpoint": [
        0.06728688910752467,
        -0.4033582959163917
      ],
      "bond_midpoint": [
        -6.067176485003559,
        -0.13161911287298447
      ],
      "orientation_vector": [
        0.0,
        1.0
      ],
      "half_bracket_size": 1.7320788714889757,
      "bond": [
        0,
        2
      ],
      "fragment": "F1",
      "backbone": true,
      "suspended_anchor_atom": null,
      "suspended_reason": null,
      "source_label": "F1/mergedFragments[0]",
      "marker_id": "0",
      "side": "left",
      "connection_group": "<1",
      "marker_type_index": 3
    },
    {
      "id": 1,
      "bracket_kind": "backbone",
      "pairing_id": "F1/mergedFragments[0]",
      "group_id": ">1:4",
      "ru_midpoint": [
        0.06728688910752467,
        -0.4033582959163917
      ],
      "bond_midpoint": [
        5.932805116206477,
        -0.3816191128729767
      ],
      "orientation_vector": [
        0.0,
        1.0
      ],
      "half_bracket_size": 1.7320788714889757,
      "bond": [
        1,
        22
      ],
      "fragment": "F1",
      "backbone": true,
      "suspended_anchor_atom": null,
      "suspended_reason": null,
      "source_label": "F1/mergedFragments[0]",
      "marker_id": "24",
      "side": "right",
      "connection_group": ">1",
      "marker_type_index": 4
    }
  ]
}
