
     RDKit          2D

  0  0  0  0  0  0  0  0  0  0999 V3000
M  V30 BEGIN CTAB
M  V30 COUNTS 33 35 1 0 0
M  V30 BEGIN ATOM
M  V30 1 H -7.433152 -0.131611 0.000000 0
M  V30 2 H 7.432688 -0.631611 0.000000 0
M  V30 3 O -6.433152 -0.631611 0.000000 0
M  V30 4 C -5.433152 -0.631611 0.000000 0
M  V30 5 C -4.933159 0.234402 0.000000 0
M  V30 6 C -5.433149 1.100411 0.000000 0
M  V30 7 C -3.933173 0.234402 0.000000 0
M  V30 8 C -3.433181 -0.631611 0.000000 0
M  V30 9 C -3.933173 -1.497624 0.000000 0
M  V30 10 C -4.933159 -1.497624 0.000000 0
M  V30 11 C -5.433157 -2.363645 0.000000 0
M  V30 12 C -2.433181 -0.631611 0.000000 0
M  V30 13 C -2.433181 -1.631636 0.000000 0
M  V30 14 C -2.433181 0.368389 0.000000 0
M  V30 15 C -1.433181 -0.631611 0.000000 0
M  V30 16 C -0.933196 0.234388 0.000000 0
M  V30 17 C 0.066773 0.234388 0.000000 0
M  V30 18 C 0.566755 1.100383 0.000000 0
M  V30 19 C 0.566757 -0.631611 0.000000 0
M  V30 20 C 0.066773 -1.497609 0.000000 0
M  V30 21 C 0.566787 -2.363659 0.000000 0
M  V30 22 C -0.933196 -1.497609 0.000000 0
M  V30 23 O 1.566757 -0.631611 0.000000 0
M  V30 24 C 2.432783 -0.131611 0.000000 0
M  V30 25 O 2.173956 0.834346 0.000000 0
M  V30 26 C 3.432783 -0.131611 0.000000 0
M  V30 27 C 3.932759 0.734373 0.000000 0
M  V30 28 C 4.932712 0.734373 0.000000 0
M  V30 29 C 5.432688 -0.131611 0.000000 0
M  V30 30 C 4.932712 -0.997595 0.000000 0
M  V30 31 C 3.932759 -0.997595 0.000000 0
M  V30 32 C 6.432688 -0.131611 0.000000 0
M  V30 33 O 6.691489 -1.097471 0.000000 0
M  V30 END ATOM
M  V30 BEGIN BOND
M  V30 1 1 3 4
M  V30 2 2 4 5
M  V30 3 1 5 6
M  V30 4 1 5 7
M  V30 5 2 7 8
M  V30 6 1 8 9
M  V30 7 2 9 10
M  V30 8 1 10 11
M  V30 9 1 8 12
M  V30 10 1 12 13
M  V30 11 1 12 14
M  V30 12 1 12 15
M  V30 13 2 15 16
M  V30 14 1 16 17
M  V30 15 1 17 18
M  V30 16 2 17 19
M  V30 17 1 19 20
M  V30 18 1 20 21
M  V30 19 2 20 22
M  V30 20 1 19 23
M  V30 21 1 23 24
M  V30 22 2 24 25
M  V30 23 1 24 26
M  V30 24 2 26 27
M  V30 25 1 27 28
M  V30 26 2 28 29
M  V30 27 1 29 30
M  V30 28 2 30 31
M  V30 29 1 29 32
M  V30 30 2 32 33
M  V30 31 1 10 4
M  V30 32 1 31 26
M  V30 33 1 22 15
M  V30 34 1 1 3
M  V30 35 1 2 32
M  V30 END BOND
M  V30 BEGIN SGROUP
M  V30 1 SRU 0 ATOMS=(4 1 2 3 32) CBONDS=(2 34 35) -
M  V30 BRKXYZ=(9 -6.9332 1.8504 0 -6.9332 -2.6136 0 0 0 0) BRKXYZ=(9 6.9327 1.-
M  V30 8504 0 6.9327 -2.6136 0 0 0 0)
M  V30 END SGROUP
M  V30 END CTAB
M  END
>  <BIGSMILES_BRACKET_RECORDS_JSON>
{
  "records": [
    {
      "id": 0,
      "bracket_kind": "backbone",
      "pairing_id": "F1/mergedFragments[0]",
      "group_id": "<1:3",
      "ru_midpoint": [
        -0.0414543511906631,
        -0.45160937064045736
      ],
      "bond_midpoint": [
        -6.933151942439195,
        -0.3816109386970039
      ],
      "orientation_vector": [
        0.0,
        1.0
      ],
      "half_bracket_size": 2.231997267491435,
      "bond": [
        0,
        2
      ],
      "fragment": "F1",
      "backbone": true,
      "suspended_anchor_atom": null,
      "suspended_reason": null,
      "source_label": "F1/mergedFragments[0]",
      "marker_id": "0",
      "side": "left",
      "connection_group": "<1",
      "marker_type_index": 3
    },
    {
      "id": 1,
      "bracket_kind": "backbone",
      "pairing_id": "F1/mergedFragments[0]",
      "group_id": ">1:4",
      "ru_midpoint": [
        -0.0414543511906631,
        -0.45160937064045736
      ],
      "bond_midpoint": [
        6.932687669391394,
        -0.3816107786970244
      ],
      "orientation_vector": [
        0.0,
        1.0
      ],
      "half_bracket_size": 2.231997267491435,
      "bond": [
        1,
        31
      ],
      "fragment": "F1",
      "backbone": true,
      "suspended_anchor_atom": null,
      "suspended_reason": null,
      "source_label": "F1/mergedFragments[0]",
      "marker_id": "32",
      "side": "right",
      "connection_group": ">1",
      "marker_type_index": 4
    }
  ]
}
