
     RDKit          2D

  0  0  0  0  0  0  0  0  0  0999 V3000
M  V30 BEGIN CTAB
M  V30 COUNTS 22 22 3 0 0
M  V30 BEGIN ATOM
M  V30 1 C -0.498000 0.832089 0.000000 0
M  V30 2 Si 0.368020 0.332092 0.000000 0 VAL=4
M  V30 3 C 0.368020 1.332062 0.000000 0
M  V30 4 C 0.368020 -0.667902 0.000000 0
M  V30 5 O 1.234012 0.832089 0.000000 0
M  V30 6 Si 5.564258 0.332102 0.000000 0 VAL=4
M  V30 7 C 5.564258 1.332034 0.000000 0
M  V30 8 C 5.564258 -0.667873 0.000000 0
M  V30 9 C 6.430254 0.832202 0.000000 0
M  V30 10 Si 2.100038 0.332089 0.000000 0 VAL=4
M  V30 11 C 2.100038 -0.667937 0.000000 0
M  V30 12 C 1.233876 -1.167786 0.000000 0
M  V30 13 C 1.233876 -2.167812 0.000000 0
M  V30 14 C 2.099865 -2.667888 0.000000 0
M  V30 15 C 2.965854 -2.167938 0.000000 0
M  V30 16 C 2.966027 -1.168012 0.000000 0
M  V30 17 C 2.100038 1.332132 0.000000 0
M  V30 18 O 2.966134 0.832052 0.000000 0
M  V30 19 Si 3.832181 0.332089 0.000000 0 VAL=4
M  V30 20 C 3.832181 1.332014 0.000000 0
M  V30 21 C 3.832181 -0.667935 0.000000 0
M  V30 22 O 4.698234 0.832105 0.000000 0
M  V30 END ATOM
M  V30 BEGIN BOND
M  V30 1 1 1 2
M  V30 2 1 2 3
M  V30 3 1 2 4
M  V30 4 1 6 7
M  V30 5 1 6 8
M  V30 6 1 6 9
M  V30 7 1 10 11
M  V30 8 2 11 12
M  V30 9 1 12 13
M  V30 10 2 13 14
M  V30 11 1 14 15
M  V30 12 2 15 16
M  V30 13 1 10 17
M  V30 14 1 10 18
M  V30 15 1 16 11
M  V30 16 1 19 20
M  V30 17 1 19 21
M  V30 18 1 19 22
M  V30 19 1 18 19
M  V30 20 1 5 10
M  V30 21 1 6 22
M  V30 22 1 2 5
M  V30 END BOND
M  V30 BEGIN SGROUP
M  V30 1 SRU 0 ATOMS=(4 5 10 18 19) CBONDS=(2 19 20) -
M  V30 BRKXYZ=(9 1.6670 1.0821 0 1.6670 0.0821 0 0 0 0) BRKXYZ=(9 3.3992 1.082-
M  V30 1 0 3.3992 0.0821 0 0 0 0)
M  V30 2 SRU 0 ATOMS=(4 6 18 19 22) CBONDS=(2 19 21) -
M  V30 BRKXYZ=(9 3.3992 1.0821 0 3.3992 0.0821 0 0 0 0) BRKXYZ=(9 5.1312 1.082-
M  V30 1 0 5.1312 0.0821 0 0 0 0)
M  V30 3 SRU 0 ATOMS=(4 5 6 10 22) CBONDS=(2 20 21) -
M  V30 BRKXYZ=(9 1.6670 4.5821 0 1.6670 -3.4179 0 0 0 0) BRKXYZ=(9 5.1312 4.58-
M  V30 21 0 5.1312 -3.4179 0 0 0 0)
M  V30 END SGROUP
M  V30 END CTAB
M  END
>  <BIGSMILES_BRACKET_RECORDS_JSON>
{
  "records": [
    {
      "id": 0,
      "bracket_kind": "backbone",
      "pairing_id": "F2/fragments[0]",
      "group_id": "<1:3",
      "ru_midpoint": [
        2.533164829957954,
        0.5820707298034857
      ],
      "bond_midpoint": [
        1.6670249302497189,
        0.5820894005006756
      ],
      "orientation_vector": [
        0.0,
        1.0
      ],
      "half_bracket_size": 0.5000159997440081,
      "bond": [
        4,
        9
      ],
      "fragment": "F2",
      "backbone": true,
      "suspended_anchor_atom": null,
      "suspended_reason": null,
      "source_label": "F2/fragments[0]",
      "marker_id": "0",
      "side": "left",
      "connection_group": "<1",
      "marker_type_index": 3
    },
    {
      "id": 1,
      "bracket_kind": "backbone",
      "pairing_id": "F2/fragments[0]",
      "group_id": ">1:4",
      "ru_midpoint": [
        2.533164829957954,
        0.5820707298034857
      ],
      "bond_midpoint": [
        3.3991576319002537,
        0.5820707298034857
      ],
      "orientation_vector": [
        0.0,
        1.0
      ],
      "half_bracket_size": 0.5000159997440081,
      "bond": [
        17,
        18
      ],
      "fragment": "F2",
      "backbone": true,
      "suspended_anchor_atom": null,
      "suspended_reason": null,
      "source_label": "F2/fragments[0]",
      "marker_id": "10",
      "side": "right",
      "connection_group": ">1",
      "marker_type_index": 4
    },
    {
      "id": 2,
      "bracket_kind": "backbone",
      "pairing_id": "F2/fragments[1]",
      "group_id": "<1:3",
      "ru_midpoint": [
        4.265205552046768,
        0.5820974003726798
      ],
      "bond_midpoint": [
        3.3991576319002537,
        0.5820707298034857
      ],
      "orientation_vector": [
        0.0,
        1.0
      ],
      "half_bracket_size": 0.5000159997440081,
      "bond": [
        17,
        18
      ],
      "fragment": "F2",
      "backbone": true,
      "suspended_anchor_atom": null,
      "suspended_reason": null,
      "source_label": "F2/fragments[1]",
      "marker_id": "0",
      "side": "left",
      "connection_group": "<1",
      "marker_type_index": 3
    },
    {
      "id": 3,
      "bracket_kind": "backbone",
      "pairing_id": "F2/fragments[1]",
      "group_id": ">1:4",
      "ru_midpoint": [
        4.265205552046768,
        0.5820974003726798
      ],
      "bond_midpoint": [
        5.131245871447236,
        0.5821035653419151
      ],
      "orientation_vector": [
        0.0,
        1.0
      ],
      "half_bracket_size": 0.5000159997440081,
      "bond": [
        5,
        21
      ],
      "fragment": "F2",
      "backbone": true,
      "suspended_anchor_atom": null,
      "suspended_reason": null,
      "source_label": "F2/fragments[1]",
      "marker_id": "5",
      "side": "right",
      "connection_group": ">1",
      "marker_type_index": 4
    },
    {
      "id": 4,
      "bracket_kind": "backbone",
      "pairing_id": "F2/connected",
      "group_id": "$overall",
      "ru_midpoint": [
        3.3991571500429334,
        0.582079619993217
      ],
      "bond_midpoint": [
        1.6670249302497189,
        0.5820894005006756
      ],
      "orientation_vector": [
        0.0,
        1.0
      ],
      "half_bracket_size": 4.000020100680177,
      "bond": [
        4,
        9
      ],
      "fragment": "F2",
      "backbone": true,
      "suspended_anchor_atom": null,
      "suspended_reason": null,
      "source_label": "F2/connected",
      "marker_id": "connected-overall-left",
      "side": "left",
      "connection_group": "$overall",
      "marker_type_index": null
    },
    {
      "id": 5,
      "bracket_kind": "backbone",
      "pairing_id": "F2/connected",
      "group_id": "$overall",
      "ru_midpoint": [
        3.3991571500429334,
        0.582079619993217
      ],
      "bond_midpoint": [
        5.131245871447236,
        0.5821035653419151
      ],
      "orientation_vector": [
        0.0,
        1.0
      ],
      "half_bracket_size": 4.000020100680177,
      "bond": [
        5,
        21
      ],
      "fragment": "F2",
      "backbone": true,
      "suspended_anchor_atom": null,
      "suspended_reason": null,
      "source_label": "F2/connected",
      "marker_id": "connected-overall-right",
      "side": "right",
      "connection_group": "$overall",
      "marker_type_index": null
    }
  ]
}
