
     RDKit          2D

  0  0  0  0  0  0  0  0  0  0999 V3000
M  V30 BEGIN CTAB
M  V30 COUNTS 31 34 1 0 0
M  V30 BEGIN ATOM
M  V30 1 H -6.822102 -0.698591 0.000000 0
M  V30 2 H 6.687666 0.667434 0.000000 0
M  V30 3 O -5.822102 -0.198591 0.000000 0
M  V30 4 C -4.822102 -0.198591 0.000000 0
M  V30 5 C -4.322092 -1.064634 0.000000 0
M  V30 6 C -3.322071 -1.064634 0.000000 0
M  V30 7 C -2.822061 -0.198591 0.000000 0
M  V30 8 C -3.322071 0.667452 0.000000 0
M  V30 9 C -4.322092 0.667452 0.000000 0
M  V30 10 C -1.822061 -0.198591 0.000000 0
M  V30 11 C -0.822044 -0.198591 0.000000 0
M  V30 12 C -0.322036 -1.064631 0.000000 0
M  V30 13 C -0.822044 -1.930670 0.000000 0
M  V30 14 C -1.822061 -1.930670 0.000000 0
M  V30 15 C -2.322069 -1.064631 0.000000 0
M  V30 16 C -0.183128 0.667434 0.000000 0
M  V30 17 C 0.455788 -0.198591 0.000000 0
M  V30 18 C 1.455808 -0.198591 0.000000 0
M  V30 19 C 1.955819 -1.064634 0.000000 0
M  V30 20 C 1.455808 -1.930678 0.000000 0
M  V30 21 C 0.455788 -1.930678 0.000000 0
M  V30 22 C -0.044223 -1.064634 0.000000 0
M  V30 23 C 1.955808 0.667434 0.000000 0
M  V30 24 C 2.455817 -0.198605 0.000000 0
M  V30 25 C 3.455833 -0.198605 0.000000 0
M  V30 26 C 3.955841 0.667434 0.000000 0
M  V30 27 C 3.455833 1.533474 0.000000 0
M  V30 28 C 2.455817 1.533474 0.000000 0
M  V30 29 O 4.955841 0.667434 0.000000 0
M  V30 30 C 5.821754 0.167411 0.000000 0
M  V30 31 O 5.821728 -0.832535 0.000000 0
M  V30 END ATOM
M  V30 BEGIN BOND
M  V30 1 1 3 4
M  V30 2 2 4 5
M  V30 3 1 5 6
M  V30 4 2 6 7
M  V30 5 1 7 8
M  V30 6 2 8 9
M  V30 7 1 7 10
M  V30 8 1 10 11
M  V30 9 2 11 12
M  V30 10 1 12 13
M  V30 11 2 13 14
M  V30 12 1 14 15
M  V30 13 1 11 16
M  V30 14 1 16 17
M  V30 15 1 17 18
M  V30 16 2 18 19
M  V30 17 1 19 20
M  V30 18 2 20 21
M  V30 19 1 21 22
M  V30 20 1 18 23
M  V30 21 2 23 24
M  V30 22 1 24 25
M  V30 23 2 25 26
M  V30 24 1 26 27
M  V30 25 2 27 28
M  V30 26 1 26 29
M  V30 27 1 29 30
M  V30 28 2 30 31
M  V30 29 1 9 4
M  V30 30 2 15 10
M  V30 31 2 22 17
M  V30 32 1 28 23
M  V30 33 1 1 3
M  V30 34 1 2 30
M  V30 END BOND
M  V30 BEGIN SGROUP
M  V30 1 SRU 0 ATOMS=(4 1 2 3 30) CBONDS=(2 33 34) -
M  V30 BRKXYZ=(9 -6.3221 3.0156 0 -6.3221 -3.9127 0 0 0 0) BRKXYZ=(9 6.2547 3.-
M  V30 8816 0 6.2547 -3.0467 0 0 0 0)
M  V30 END SGROUP
M  V30 END CTAB
M  END
>  <BIGSMILES_BRACKET_RECORDS_JSON>
{
  "records": [
    {
      "id": 0,
      "bracket_kind": "backbone",
      "pairing_id": "F1/mergedFragments[0]",
      "group_id": "<1:3",
      "ru_midpoint": [
        -0.15447403688993733,
        -0.7563319775817625
      ],
      "bond_midpoint": [
        -6.322101822029596,
        -0.4485910621329472
      ],
      "orientation_vector": [
        0.0,
        1.0
      ],
      "half_bracket_size": 3.4641514269853637,
      "bond": [
        0,
        2
      ],
      "fragment": "F1",
      "backbone": true,
      "suspended_anchor_atom": null,
      "suspended_reason": null,
      "source_label": "F1/mergedFragments[0]",
      "marker_id": "0",
      "side": "left",
      "connection_group": "<1",
      "marker_type_index": 3
    },
    {
      "id": 1,
      "bracket_kind": "backbone",
      "pairing_id": "F1/mergedFragments[0]",
      "group_id": ">1:4",
      "ru_midpoint": [
        -0.15447403688993733,
        -0.7563319775817625
      ],
      "bond_midpoint": [
        6.254709816177327,
        0.4174228982107089
      ],
      "orientation_vector": [
        0.0,
        1.0
      ],
      "half_bracket_size": 3.4641514269853637,
      "bond": [
        1,
        29
      ],
      "fragment": "F1",
      "backbone": true,
      "suspended_anchor_atom": null,
      "suspended_reason": null,
      "source_label": "F1/mergedFragments[0]",
      "marker_id": "30",
      "side": "right",
      "connection_group": ">1",
      "marker_type_index": 4
    }
  ]
}
