
     RDKit          2D

  0  0  0  0  0  0  0  0  0  0999 V3000
M  V30 BEGIN CTAB
M  V30 COUNTS 47 52 1 0 0
M  V30 BEGIN ATOM
M  V30 1 H -8.721694 -0.808757 0.000000 0
M  V30 2 H 8.721295 -0.314862 0.000000 0
M  V30 3 N -7.730864 -0.943871 0.000000 0
M  V30 4 C -7.042165 -0.221998 0.000000 0
M  V30 5 O -7.220369 0.760680 0.000000 0
M  V30 6 C -6.141772 -0.657072 0.000000 0
M  V30 7 C -5.222287 -0.280266 0.000000 0
M  V30 8 C -4.439968 -0.893094 0.000000 0
M  V30 9 C -4.575918 -1.875210 0.000000 0
M  V30 10 C -5.494848 -2.249115 0.000000 0
M  V30 11 C -6.278171 -1.644494 0.000000 0
M  V30 12 C -7.260248 -1.824433 0.000000 0
M  V30 13 O -7.694226 -2.724264 0.000000 0
M  V30 14 C -3.102680 -0.518119 0.000000 0
M  V30 15 C -3.102680 -1.930512 0.000000 0
M  V30 16 F -4.085226 -2.001232 0.000000 0
M  V30 17 F -3.587629 -2.845582 0.000000 0
M  V30 18 F -2.252817 -2.541410 0.000000 0
M  V30 19 C -3.102680 0.613470 0.000000 0
M  V30 20 F -4.053057 0.706844 0.000000 0
M  V30 21 F -3.577478 1.487076 0.000000 0
M  V30 22 F -2.373463 1.103508 0.000000 0
M  V30 23 C -2.176406 -0.894971 0.000000 0
M  V30 24 C -1.383211 -0.279399 0.000000 0
M  V30 25 C -0.460740 -0.659412 0.000000 0
M  V30 26 C 0.441488 -0.225043 0.000000 0
M  V30 27 O 0.620867 0.757901 0.000000 0
M  V30 28 N 1.130778 -0.948678 0.000000 0
M  V30 29 C 0.657708 -1.829942 0.000000 0
M  V30 30 O 1.091207 -2.730064 0.000000 0
M  V30 31 C -0.325580 -1.650509 0.000000 0
M  V30 32 C -1.115602 -2.262655 0.000000 0
M  V30 33 C -2.039066 -1.883650 0.000000 0
M  V30 34 C 2.121784 -0.814862 0.000000 0
M  V30 35 C 2.988163 -0.314658 0.000000 0
M  V30 36 C 3.854543 -0.814862 0.000000 0
M  V30 37 C 3.854543 -1.815271 0.000000 0
M  V30 38 C 2.988163 -2.315475 0.000000 0
M  V30 39 C 2.121784 -1.815271 0.000000 0
M  V30 40 C 4.720568 -0.314862 0.000000 0
M  V30 41 O 4.461686 0.651297 0.000000 0
M  V30 42 C 5.720568 -0.314862 0.000000 0
M  V30 43 C 6.220750 0.551478 0.000000 0
M  V30 44 C 7.221114 0.551478 0.000000 0
M  V30 45 C 7.721295 -0.314862 0.000000 0
M  V30 46 C 7.221114 -1.181203 0.000000 0
M  V30 47 C 6.220750 -1.181203 0.000000 0
M  V30 END ATOM
M  V30 BEGIN BOND
M  V30 1 1 3 4
M  V30 2 2 4 5
M  V30 3 1 4 6
M  V30 4 2 6 7
M  V30 5 1 7 8
M  V30 6 2 8 9
M  V30 7 1 9 10
M  V30 8 2 10 11
M  V30 9 1 11 12
M  V30 10 2 12 13
M  V30 11 1 8 14
M  V30 12 1 14 15
M  V30 13 1 15 16
M  V30 14 1 15 17
M  V30 15 1 15 18
M  V30 16 1 14 19
M  V30 17 1 19 20
M  V30 18 1 19 21
M  V30 19 1 19 22
M  V30 20 1 14 23
M  V30 21 2 23 24
M  V30 22 1 24 25
M  V30 23 1 25 26
M  V30 24 2 26 27
M  V30 25 1 26 28
M  V30 26 1 28 29
M  V30 27 2 29 30
M  V30 28 1 29 31
M  V30 29 1 31 32
M  V30 30 2 32 33
M  V30 31 1 28 34
M  V30 32 2 34 35
M  V30 33 1 35 36
M  V30 34 2 36 37
M  V30 35 1 37 38
M  V30 36 2 38 39
M  V30 37 1 36 40
M  V30 38 2 40 41
M  V30 39 1 40 42
M  V30 40 2 42 43
M  V30 41 1 43 44
M  V30 42 2 44 45
M  V30 43 1 45 46
M  V30 44 2 46 47
M  V30 45 1 12 3
M  V30 46 1 39 34
M  V30 47 1 11 6
M  V30 48 1 47 42
M  V30 49 1 33 23
M  V30 50 2 31 25
M  V30 51 1 1 3
M  V30 52 1 2 45
M  V30 END BOND
M  V30 BEGIN SGROUP
M  V30 1 SRU 0 ATOMS=(4 1 2 3 45) CBONDS=(2 51 52) -
M  V30 BRKXYZ=(9 -8.2263 1.9906 0 -8.2263 -3.7433 0 0 0 0) BRKXYZ=(9 8.2213 2.-
M  V30 5521 0 8.2213 -3.1818 0 0 0 0)
M  V30 END SGROUP
M  V30 END CTAB
M  END
>  <BIGSMILES_BRACKET_RECORDS_JSON>
{
  "records": [
    {
      "id": 0,
      "bracket_kind": "backbone",
      "pairing_id": "F1/mergedFragments[0]",
      "group_id": "<1:3",
      "ru_midpoint": [
        0.012211417599777619,
        -0.9694113892875142
      ],
      "bond_midpoint": [
        -8.22627919342722,
        -0.8763141160917867
      ],
      "orientation_vector": [
        0.0,
        1.0
      ],
      "half_bracket_size": 2.866953241162438,
      "bond": [
        0,
        2
      ],
      "fragment": "F1",
      "backbone": true,
      "suspended_anchor_atom": null,
      "suspended_reason": null,
      "source_label": "F1/mergedFragments[0]",
      "marker_id": "0",
      "side": "left",
      "connection_group": "<1",
      "marker_type_index": 3
    },
    {
      "id": 1,
      "bracket_kind": "backbone",
      "pairing_id": "F1/mergedFragments[0]",
      "group_id": ">1:4",
      "ru_midpoint": [
        0.012211417599777619,
        -0.9694113892875142
      ],
      "bond_midpoint": [
        8.221295346952731,
        -0.3148624146115862
      ],
      "orientation_vector": [
        0.0,
        1.0
      ],
      "half_bracket_size": 2.866953241162438,
      "bond": [
        1,
        44
      ],
      "fragment": "F1",
      "backbone": true,
      "suspended_anchor_atom": null,
      "suspended_reason": null,
      "source_label": "F1/mergedFragments[0]",
      "marker_id": "46",
      "side": "right",
      "connection_group": ">1",
      "marker_type_index": 4
    }
  ]
}
