
     RDKit          2D

  0  0  0  0  0  0  0  0  0  0999 V3000
M  V30 BEGIN CTAB
M  V30 COUNTS 47 52 1 0 0
M  V30 BEGIN ATOM
M  V30 1 H -8.164051 -0.059478 0.000000 0
M  V30 2 H 8.163652 -0.921138 0.000000 0
M  V30 3 N -7.173439 -0.196183 0.000000 0
M  V30 4 C -6.479785 0.523938 0.000000 0
M  V30 5 O -6.656058 1.509485 0.000000 0
M  V30 6 C -5.579360 0.088822 0.000000 0
M  V30 7 C -4.662445 0.463146 0.000000 0
M  V30 8 C -3.874872 -0.141865 0.000000 0
M  V30 9 C -4.007223 -1.132490 0.000000 0
M  V30 10 C -4.927692 -1.513382 0.000000 0
M  V30 11 C -5.717198 -0.902039 0.000000 0
M  V30 12 C -6.700263 -1.078172 0.000000 0
M  V30 13 O -7.135981 -1.978910 0.000000 0
M  V30 14 C -2.950522 0.239680 0.000000 0
M  V30 15 C -2.950522 -1.088301 0.000000 0
M  V30 16 F -1.991946 -1.203088 0.000000 0
M  V30 17 F -2.448246 -1.964685 0.000000 0
M  V30 18 F -3.730940 -1.667656 0.000000 0
M  V30 19 C -2.950522 1.421640 0.000000 0
M  V30 20 F -2.002573 1.469584 0.000000 0
M  V30 21 F -2.454403 2.271997 0.000000 0
M  V30 22 F -3.726403 1.931136 0.000000 0
M  V30 23 C -1.628707 -0.141382 0.000000 0
M  V30 24 C -0.838237 0.466399 0.000000 0
M  V30 25 C 0.084385 0.086899 0.000000 0
M  V30 26 C 0.980361 0.519695 0.000000 0
M  V30 27 O 1.155281 1.505308 0.000000 0
M  V30 28 N 1.672429 -0.194711 0.000000 0
M  V30 29 C 1.201835 -1.078245 0.000000 0
M  V30 30 O 1.640060 -1.979873 0.000000 0
M  V30 31 C 0.220316 -0.903125 0.000000 0
M  V30 32 C -0.575384 -1.512307 0.000000 0
M  V30 33 C -1.495797 -1.131573 0.000000 0
M  V30 34 C 2.662637 -0.055113 0.000000 0
M  V30 35 C 2.162517 0.811122 0.000000 0
M  V30 36 C 2.662637 1.677356 0.000000 0
M  V30 37 C 3.662879 1.677356 0.000000 0
M  V30 38 C 4.162999 0.811122 0.000000 0
M  V30 39 C 3.662879 -0.055113 0.000000 0
M  V30 40 C 4.162879 -0.921138 0.000000 0
M  V30 41 O 3.718617 -1.690622 0.000000 0
M  V30 42 C 5.162879 -0.921138 0.000000 0
M  V30 43 C 5.663072 -0.054778 0.000000 0
M  V30 44 C 6.663459 -0.054778 0.000000 0
M  V30 45 C 7.163652 -0.921138 0.000000 0
M  V30 46 C 6.663459 -1.787498 0.000000 0
M  V30 47 C 5.663072 -1.787498 0.000000 0
M  V30 END ATOM
M  V30 BEGIN BOND
M  V30 1 1 3 4
M  V30 2 2 4 5
M  V30 3 1 4 6
M  V30 4 2 6 7
M  V30 5 1 7 8
M  V30 6 2 8 9
M  V30 7 1 9 10
M  V30 8 2 10 11
M  V30 9 1 11 12
M  V30 10 2 12 13
M  V30 11 1 8 14
M  V30 12 1 14 15
M  V30 13 1 15 16
M  V30 14 1 15 17
M  V30 15 1 15 18
M  V30 16 1 14 19
M  V30 17 1 19 20
M  V30 18 1 19 21
M  V30 19 1 19 22
M  V30 20 1 14 23
M  V30 21 2 23 24
M  V30 22 1 24 25
M  V30 23 1 25 26
M  V30 24 2 26 27
M  V30 25 1 26 28
M  V30 26 1 28 29
M  V30 27 2 29 30
M  V30 28 1 29 31
M  V30 29 1 31 32
M  V30 30 2 32 33
M  V30 31 1 28 34
M  V30 32 2 34 35
M  V30 33 1 35 36
M  V30 34 2 36 37
M  V30 35 1 37 38
M  V30 36 2 38 39
M  V30 37 1 39 40
M  V30 38 2 40 41
M  V30 39 1 40 42
M  V30 40 2 42 43
M  V30 41 1 43 44
M  V30 42 2 44 45
M  V30 43 1 45 46
M  V30 44 2 46 47
M  V30 45 1 12 3
M  V30 46 1 39 34
M  V30 47 1 11 6
M  V30 48 1 47 42
M  V30 49 1 33 23
M  V30 50 2 31 25
M  V30 51 1 1 3
M  V30 52 1 2 45
M  V30 END BOND
M  V30 BEGIN SGROUP
M  V30 1 SRU 0 ATOMS=(4 1 2 3 45) CBONDS=(2 51 52) -
M  V30 BRKXYZ=(9 -7.6687 3.3370 0 -7.6687 -3.5927 0 0 0 0) BRKXYZ=(9 7.6637 2.-
M  V30 5437 0 7.6637 -4.3860 0 0 0 0)
M  V30 END SGROUP
M  V30 END CTAB
M  END
>  <BIGSMILES_BRACKET_RECORDS_JSON>
{
  "records": [
    {
      "id": 0,
      "bracket_kind": "backbone",
      "pairing_id": "F1/mergedFragments[0]",
      "group_id": "<1:3",
      "ru_midpoint": [
        0.22550067155386877,
        -0.2970220114753918
      ],
      "bond_midpoint": [
        -7.668744850950983,
        -0.12783051369536524
      ],
      "orientation_vector": [
        0.0,
        1.0
      ],
      "half_bracket_size": 3.464854305284718,
      "bond": [
        0,
        2
      ],
      "fragment": "F1",
      "backbone": true,
      "suspended_anchor_atom": null,
      "suspended_reason": null,
      "source_label": "F1/mergedFragments[0]",
      "marker_id": "0",
      "side": "left",
      "connection_group": "<1",
      "marker_type_index": 3
    },
    {
      "id": 1,
      "bracket_kind": "backbone",
      "pairing_id": "F1/mergedFragments[0]",
      "group_id": ">1:4",
      "ru_midpoint": [
        0.22550067155386877,
        -0.2970220114753918
      ],
      "bond_midpoint": [
        7.66365185198125,
        -0.9211381041167144
      ],
      "orientation_vector": [
        0.0,
        1.0
      ],
      "half_bracket_size": 3.464854305284718,
      "bond": [
        1,
        44
      ],
      "fragment": "F1",
      "backbone": true,
      "suspended_anchor_atom": null,
      "suspended_reason": null,
      "source_label": "F1/mergedFragments[0]",
      "marker_id": "46",
      "side": "right",
      "connection_group": ">1",
      "marker_type_index": 4
    }
  ]
}
