
     RDKit          2D

  0  0  0  0  0  0  0  0  0  0999 V3000
M  V30 BEGIN CTAB
M  V30 COUNTS 24 26 1 0 0
M  V30 BEGIN ATOM
M  V30 1 H -6.567144 0.118394 0.000000 0
M  V30 2 H 6.432770 -0.381606 0.000000 0
M  V30 3 O -5.567144 -0.381606 0.000000 0
M  V30 4 C -4.567144 -0.381606 0.000000 0
M  V30 5 C -4.067151 0.484407 0.000000 0
M  V30 6 C -3.067165 0.484407 0.000000 0
M  V30 7 C -2.567172 -0.381606 0.000000 0
M  V30 8 C -3.067165 -1.247619 0.000000 0
M  V30 9 C -4.067151 -1.247619 0.000000 0
M  V30 10 O -1.567172 -0.381606 0.000000 0
M  V30 11 C -0.567172 -0.381606 0.000000 0
M  V30 12 C -0.067179 0.484407 0.000000 0
M  V30 13 C 0.932806 0.484407 0.000000 0
M  V30 14 C 1.432799 -0.381606 0.000000 0
M  V30 15 C 0.932806 -1.247619 0.000000 0
M  V30 16 C -0.067179 -1.247619 0.000000 0
M  V30 17 C 2.432799 -0.381606 0.000000 0
M  V30 18 O 2.432799 -1.381607 0.000000 0
M  V30 19 C 3.432799 -0.381606 0.000000 0
M  V30 20 C 3.932792 0.484407 0.000000 0
M  V30 21 C 4.932778 0.484407 0.000000 0
M  V30 22 C 5.432770 -0.381606 0.000000 0
M  V30 23 C 4.932778 -1.247619 0.000000 0
M  V30 24 C 3.932792 -1.247619 0.000000 0
M  V30 END ATOM
M  V30 BEGIN BOND
M  V30 1 1 3 4
M  V30 2 2 4 5
M  V30 3 1 5 6
M  V30 4 2 6 7
M  V30 5 1 7 8
M  V30 6 2 8 9
M  V30 7 1 7 10
M  V30 8 1 10 11
M  V30 9 2 11 12
M  V30 10 1 12 13
M  V30 11 2 13 14
M  V30 12 1 14 15
M  V30 13 2 15 16
M  V30 14 1 14 17
M  V30 15 2 17 18
M  V30 16 1 17 19
M  V30 17 2 19 20
M  V30 18 1 20 21
M  V30 19 2 21 22
M  V30 20 1 22 23
M  V30 21 2 23 24
M  V30 22 1 9 4
M  V30 23 1 16 11
M  V30 24 1 24 19
M  V30 25 1 1 3
M  V30 26 1 2 22
M  V30 END BOND
M  V30 BEGIN SGROUP
M  V30 1 SRU 0 ATOMS=(4 1 2 3 22) CBONDS=(2 25 26) -
M  V30 BRKXYZ=(9 -6.0671 1.6004 0 -6.0671 -1.8636 0 0 0 0) BRKXYZ=(9 5.9328 1.-
M  V30 3504 0 5.9328 -2.1136 0 0 0 0)
M  V30 END SGROUP
M  V30 END CTAB
M  END
>  <BIGSMILES_BRACKET_RECORDS_JSON>
{
  "records": [
    {
      "id": 0,
      "bracket_kind": "backbone",
      "pairing_id": "F1/fragments[0]",
      "group_id": "<1:3",
      "ru_midpoint": [
        0.06730512304087144,
        -0.403345549450865
      ],
      "bond_midpoint": [
        -6.067143570741192,
        -0.13160641205955995
      ],
      "orientation_vector": [
        0.0,
        1.0
      ],
      "half_bracket_size": 1.7320259682381924,
      "bond": [
        0,
        2
      ],
      "fragment": "F1",
      "backbone": true,
      "suspended_anchor_atom": null,
      "suspended_reason": null,
      "source_label": "F1/fragments[0]",
      "marker_id": "0",
      "side": "left",
      "connection_group": "<1",
      "marker_type_index": 3
    },
    {
      "id": 1,
      "bracket_kind": "backbone",
      "pairing_id": "F1/fragments[0]",
      "group_id": ">1:4",
      "ru_midpoint": [
        0.06730512304087144,
        -0.403345549450865
      ],
      "bond_midpoint": [
        5.932770383293251,
        -0.38160641205956336
      ],
      "orientation_vector": [
        0.0,
        1.0
      ],
      "half_bracket_size": 1.7320259682381924,
      "bond": [
        1,
        21
      ],
      "fragment": "F1",
      "backbone": true,
      "suspended_anchor_atom": null,
      "suspended_reason": null,
      "source_label": "F1/fragments[0]",
      "marker_id": "23",
      "side": "right",
      "connection_group": ">1",
      "marker_type_index": 4
    }
  ]
}
