
     RDKit          2D

  0  0  0  0  0  0  0  0  0  0999 V3000
M  V30 BEGIN CTAB
M  V30 COUNTS 47 52 1 0 0
M  V30 BEGIN ATOM
M  V30 1 H -8.922772 -0.558605 0.000000 0
M  V30 2 H 8.922373 -0.564779 0.000000 0
M  V30 3 N -7.931960 -0.693855 0.000000 0
M  V30 4 C -7.243176 0.027814 0.000000 0
M  V30 5 O -7.421187 1.010714 0.000000 0
M  V30 6 C -6.342954 -0.407460 0.000000 0
M  V30 7 C -5.423357 -0.030543 0.000000 0
M  V30 8 C -4.641369 -0.643229 0.000000 0
M  V30 9 C -4.777238 -1.625094 0.000000 0
M  V30 10 C -5.696246 -1.999642 0.000000 0
M  V30 11 C -6.479529 -1.394737 0.000000 0
M  V30 12 C -7.461395 -1.574468 0.000000 0
M  V30 13 O -7.895493 -2.474277 0.000000 0
M  V30 14 C -3.303583 -0.268276 0.000000 0
M  V30 15 C -3.303583 -1.680136 0.000000 0
M  V30 16 F -4.286340 -1.750814 0.000000 0
M  V30 17 F -3.788938 -2.595213 0.000000 0
M  V30 18 F -2.453751 -2.290952 0.000000 0
M  V30 19 C -3.303583 0.865701 0.000000 0
M  V30 20 F -4.254408 0.956768 0.000000 0
M  V30 21 F -3.778646 1.738691 0.000000 0
M  V30 22 F -2.574156 1.355068 0.000000 0
M  V30 23 C -2.377306 -0.645119 0.000000 0
M  V30 24 C -1.584220 -0.029606 0.000000 0
M  V30 25 C -0.661582 -0.409499 0.000000 0
M  V30 26 C 0.240490 0.024680 0.000000 0
M  V30 27 O 0.419803 1.007682 0.000000 0
M  V30 28 N 0.929950 -0.698765 0.000000 0
M  V30 29 C 0.456887 -1.580205 0.000000 0
M  V30 30 O 0.890356 -2.480160 0.000000 0
M  V30 31 C -0.526525 -1.400752 0.000000 0
M  V30 32 C -1.316433 -2.012820 0.000000 0
M  V30 33 C -2.239958 -1.633851 0.000000 0
M  V30 34 C 1.920933 -0.564779 0.000000 0
M  V30 35 C 2.421117 0.301565 0.000000 0
M  V30 36 C 3.421486 0.301565 0.000000 0
M  V30 37 C 3.921670 -0.564779 0.000000 0
M  V30 38 C 3.421486 -1.431124 0.000000 0
M  V30 39 C 2.421117 -1.431124 0.000000 0
M  V30 40 C 4.921670 -0.564779 0.000000 0
M  V30 41 O 4.921670 -1.564749 0.000000 0
M  V30 42 C 5.921670 -0.564779 0.000000 0
M  V30 43 C 6.421846 0.301551 0.000000 0
M  V30 44 C 7.422197 0.301551 0.000000 0
M  V30 45 C 7.922373 -0.564779 0.000000 0
M  V30 46 C 7.422197 -1.431109 0.000000 0
M  V30 47 C 6.421846 -1.431109 0.000000 0
M  V30 END ATOM
M  V30 BEGIN BOND
M  V30 1 1 3 4
M  V30 2 2 4 5
M  V30 3 1 4 6
M  V30 4 2 6 7
M  V30 5 1 7 8
M  V30 6 2 8 9
M  V30 7 1 9 10
M  V30 8 2 10 11
M  V30 9 1 11 12
M  V30 10 2 12 13
M  V30 11 1 8 14
M  V30 12 1 14 15
M  V30 13 1 15 16
M  V30 14 1 15 17
M  V30 15 1 15 18
M  V30 16 1 14 19
M  V30 17 1 19 20
M  V30 18 1 19 21
M  V30 19 1 19 22
M  V30 20 1 14 23
M  V30 21 2 23 24
M  V30 22 1 24 25
M  V30 23 1 25 26
M  V30 24 2 26 27
M  V30 25 1 26 28
M  V30 26 1 28 29
M  V30 27 2 29 30
M  V30 28 1 29 31
M  V30 29 1 31 32
M  V30 30 2 32 33
M  V30 31 1 28 34
M  V30 32 2 34 35
M  V30 33 1 35 36
M  V30 34 2 36 37
M  V30 35 1 37 38
M  V30 36 2 38 39
M  V30 37 1 37 40
M  V30 38 2 40 41
M  V30 39 1 40 42
M  V30 40 2 42 43
M  V30 41 1 43 44
M  V30 42 2 44 45
M  V30 43 1 45 46
M  V30 44 2 46 47
M  V30 45 1 12 3
M  V30 46 1 39 34
M  V30 47 1 11 6
M  V30 48 1 47 42
M  V30 49 1 33 23
M  V30 50 2 31 25
M  V30 51 1 1 3
M  V30 52 1 2 45
M  V30 END BOND
M  V30 BEGIN SGROUP
M  V30 1 SRU 0 ATOMS=(4 1 2 3 45) CBONDS=(2 51 52) -
M  V30 BRKXYZ=(9 -8.4274 1.6882 0 -8.4274 -2.9406 0 0 0 0) BRKXYZ=(9 8.4224 1.-
M  V30 7496 0 8.4224 -2.8792 0 0 0 0)
M  V30 END SGROUP
M  V30 END CTAB
M  END
>  <BIGSMILES_BRACKET_RECORDS_JSON>
{
  "records": [
    {
      "id": 0,
      "bracket_kind": "backbone",
      "pairing_id": "F1/mergedFragments[0]",
      "group_id": "<1:3",
      "ru_midpoint": [
        -0.07053813191416047,
        -0.7488512581245987
      ],
      "bond_midpoint": [
        -8.427366165577258,
        -0.6262301174958298
      ],
      "orientation_vector": [
        0.0,
        1.0
      ],
      "half_bracket_size": 2.3143851380356164,
      "bond": [
        0,
        2
      ],
      "fragment": "F1",
      "backbone": true,
      "suspended_anchor_atom": null,
      "suspended_reason": null,
      "source_label": "F1/mergedFragments[0]",
      "marker_id": "0",
      "side": "left",
      "connection_group": "<1",
      "marker_type_index": 3
    },
    {
      "id": 1,
      "bracket_kind": "backbone",
      "pairing_id": "F1/mergedFragments[0]",
      "group_id": ">1:4",
      "ru_midpoint": [
        -0.07053813191416047,
        -0.7488512581245987
      ],
      "bond_midpoint": [
        8.422373085626024,
        -0.5647793777382673
      ],
      "orientation_vector": [
        0.0,
        1.0
      ],
      "half_bracket_size": 2.3143851380356164,
      "bond": [
        1,
        44
      ],
      "fragment": "F1",
      "backbone": true,
      "suspended_anchor_atom": null,
      "suspended_reason": null,
      "source_label": "F1/mergedFragments[0]",
      "marker_id": "46",
      "side": "right",
      "connection_group": ">1",
      "marker_type_index": 4
    }
  ]
}
