
     RDKit          2D

  0  0  0  0  0  0  0  0  0  0999 V3000
M  V30 BEGIN CTAB
M  V30 COUNTS 48 55 1 0 0
M  V30 BEGIN ATOM
M  V30 1 H -10.031318 -0.015676 0.000000 0
M  V30 2 H 10.030919 0.484424 0.000000 0
M  V30 3 C -9.165280 -0.515654 0.000000 0
M  V30 4 C -8.299247 -0.015666 0.000000 0
M  V30 5 C -7.433148 -0.515604 0.000000 0
M  V30 6 C -7.433256 -1.515628 0.000000 0
M  V30 7 C -6.567158 -2.015566 0.000000 0
M  V30 8 C -6.567266 -3.015591 0.000000 0
M  V30 9 C -7.433299 -3.515578 0.000000 0
M  V30 10 C -8.299224 -3.015541 0.000000 0
M  V30 11 C -8.299289 -2.015616 0.000000 0
M  V30 12 N -9.165215 -1.515579 0.000000 0
M  V30 13 C -6.567119 -0.015611 0.000000 0
M  V30 14 C -6.067126 -0.881624 0.000000 0
M  V30 15 C -5.067140 -0.881624 0.000000 0
M  V30 16 C -4.567147 -0.015611 0.000000 0
M  V30 17 C -5.067140 0.850402 0.000000 0
M  V30 18 C -6.067126 0.850402 0.000000 0
M  V30 19 O -3.567147 -0.015611 0.000000 0
M  V30 20 C -2.567147 -0.015611 0.000000 0
M  V30 21 C -2.067155 -0.881624 0.000000 0
M  V30 22 C -1.067169 -0.881624 0.000000 0
M  V30 23 C -0.567176 -0.015611 0.000000 0
M  V30 24 C -1.067169 0.850402 0.000000 0
M  V30 25 C -2.067155 0.850402 0.000000 0
M  V30 26 C 0.432824 -0.015611 0.000000 0
M  V30 27 C 1.298855 0.484380 0.000000 0
M  V30 28 C 2.164943 -0.015561 0.000000 0
M  V30 29 N 2.164827 -1.015593 0.000000 0
M  V30 30 C 1.298796 -1.515584 0.000000 0
M  V30 31 C 1.298853 -2.515516 0.000000 0
M  V30 32 C 0.432922 -3.015680 0.000000 0
M  V30 33 C -0.433166 -2.515739 0.000000 0
M  V30 34 C -0.433050 -1.515707 0.000000 0
M  V30 35 C 0.432881 -1.015543 0.000000 0
M  V30 36 C 3.030977 0.484424 0.000000 0
M  V30 37 C 3.530969 -0.381589 0.000000 0
M  V30 38 C 4.530955 -0.381589 0.000000 0
M  V30 39 C 5.030948 0.484424 0.000000 0
M  V30 40 C 4.530955 1.350437 0.000000 0
M  V30 41 C 3.530969 1.350437 0.000000 0
M  V30 42 O 6.030948 0.484424 0.000000 0
M  V30 43 C 7.030948 0.484424 0.000000 0
M  V30 44 C 7.530941 -0.381589 0.000000 0
M  V30 45 C 8.530926 -0.381589 0.000000 0
M  V30 46 C 9.030919 0.484424 0.000000 0
M  V30 47 C 8.530926 1.350437 0.000000 0
M  V30 48 C 7.530941 1.350437 0.000000 0
M  V30 END ATOM
M  V30 BEGIN BOND
M  V30 1 2 3 4
M  V30 2 1 4 5
M  V30 3 2 5 6
M  V30 4 1 6 7
M  V30 5 2 7 8
M  V30 6 1 8 9
M  V30 7 2 9 10
M  V30 8 1 10 11
M  V30 9 2 11 12
M  V30 10 1 5 13
M  V30 11 2 13 14
M  V30 12 1 14 15
M  V30 13 2 15 16
M  V30 14 1 16 17
M  V30 15 2 17 18
M  V30 16 1 16 19
M  V30 17 1 19 20
M  V30 18 2 20 21
M  V30 19 1 21 22
M  V30 20 2 22 23
M  V30 21 1 23 24
M  V30 22 2 24 25
M  V30 23 1 23 26
M  V30 24 2 26 27
M  V30 25 1 27 28
M  V30 26 2 28 29
M  V30 27 1 29 30
M  V30 28 2 30 31
M  V30 29 1 31 32
M  V30 30 2 32 33
M  V30 31 1 33 34
M  V30 32 2 34 35
M  V30 33 1 28 36
M  V30 34 2 36 37
M  V30 35 1 37 38
M  V30 36 2 38 39
M  V30 37 1 39 40
M  V30 38 2 40 41
M  V30 39 1 39 42
M  V30 40 1 42 43
M  V30 41 2 43 44
M  V30 42 1 44 45
M  V30 43 2 45 46
M  V30 44 1 46 47
M  V30 45 2 47 48
M  V30 46 1 12 3
M  V30 47 1 41 36
M  V30 48 1 11 6
M  V30 49 1 48 43
M  V30 50 1 18 13
M  V30 51 1 25 20
M  V30 52 1 35 26
M  V30 53 1 35 30
M  V30 54 1 1 3
M  V30 55 1 2 46
M  V30 END BOND
M  V30 BEGIN SGROUP
M  V30 1 SRU 0 ATOMS=(4 1 2 3 46) CBONDS=(2 54 55) -
M  V30 BRKXYZ=(9 -9.5983 4.6004 0 -9.5983 -5.1317 0 0 0 0) BRKXYZ=(9 9.5309 5.-
M  V30 3504 0 9.5309 -4.3816 0 0 0 0)
M  V30 END SGROUP
M  V30 END CTAB
M  END
>  <BIGSMILES_BRACKET_RECORDS_JSON>
{
  "records": [
    {
      "id": 0,
      "bracket_kind": "backbone",
      "pairing_id": "F1/mergedFragments[0]",
      "group_id": "<1:3",
      "ru_midpoint": [
        -0.7911394450382314,
        -0.49476792193225627
      ],
      "bond_midpoint": [
        -9.598299042892364,
        -0.2656647190931971
      ],
      "orientation_vector": [
        0.0,
        1.0
      ],
      "half_bracket_size": 4.866015159680552,
      "bond": [
        0,
        2
      ],
      "fragment": "F1",
      "backbone": true,
      "suspended_anchor_atom": null,
      "suspended_reason": null,
      "source_label": "F1/mergedFragments[0]",
      "marker_id": "0",
      "side": "left",
      "connection_group": "<1",
      "marker_type_index": 3
    },
    {
      "id": 1,
      "bracket_kind": "backbone",
      "pairing_id": "F1/mergedFragments[0]",
      "group_id": ">1:4",
      "ru_midpoint": [
        -0.7911394450382314,
        -0.49476792193225627
      ],
      "bond_midpoint": [
        9.53091920501706,
        0.48442424486822955
      ],
      "orientation_vector": [
        0.0,
        1.0
      ],
      "half_bracket_size": 4.866015159680552,
      "bond": [
        1,
        45
      ],
      "fragment": "F1",
      "backbone": true,
      "suspended_anchor_atom": null,
      "suspended_reason": null,
      "source_label": "F1/mergedFragments[0]",
      "marker_id": "47",
      "side": "right",
      "connection_group": ">1",
      "marker_type_index": 4
    }
  ]
}
