
     RDKit          2D

  0  0  0  0  0  0  0  0  0  0999 V3000
M  V30 BEGIN CTAB
M  V30 COUNTS 31 35 1 0 0
M  V30 BEGIN ATOM
M  V30 1 H -6.696229 -0.381567 0.000000 0
M  V30 2 H 6.695830 -0.381693 0.000000 0
M  V30 3 C -5.830176 -0.881520 0.000000 0
M  V30 4 N -4.964180 -0.381419 0.000000 0
M  V30 5 C -4.098175 -0.881520 0.000000 0
M  V30 6 C -3.232179 -0.381419 0.000000 0
M  V30 7 C -2.366175 -0.881520 0.000000 0
M  V30 8 C -2.366166 -1.881520 0.000000 0
M  V30 9 C -3.232163 -2.381420 0.000000 0
M  V30 10 C -4.098167 -1.881520 0.000000 0
M  V30 11 N -4.964163 -2.381420 0.000000 0
M  V30 12 C -5.830168 -1.881520 0.000000 0
M  V30 13 S -1.500127 -0.381558 0.000000 0
M  V30 14 O -1.500127 -1.381583 0.000000 0
M  V30 15 O -1.500127 0.618467 0.000000 0
M  V30 16 C -0.634103 0.118443 0.000000 0
M  V30 17 C 0.231941 -0.381526 0.000000 0
M  V30 18 C 1.098016 0.118437 0.000000 0
M  V30 19 N 1.964060 -0.381533 0.000000 0
M  V30 20 C 2.829862 0.118357 0.000000 0
M  V30 21 C 2.829994 1.118462 0.000000 0
M  V30 22 N 1.963951 1.618431 0.000000 0
M  V30 23 C 1.098048 1.118369 0.000000 0
M  V30 24 C 0.232005 1.618338 0.000000 0
M  V30 25 C -0.634071 1.118375 0.000000 0
M  V30 26 C 3.695858 -0.381693 0.000000 0
M  V30 27 C 4.195851 0.484320 0.000000 0
M  V30 28 C 5.195837 0.484320 0.000000 0
M  V30 29 C 5.695830 -0.381693 0.000000 0
M  V30 30 C 5.195837 -1.247706 0.000000 0
M  V30 31 C 4.195851 -1.247706 0.000000 0
M  V30 END ATOM
M  V30 BEGIN BOND
M  V30 1 2 3 4
M  V30 2 1 4 5
M  V30 3 2 5 6
M  V30 4 1 6 7
M  V30 5 2 7 8
M  V30 6 1 8 9
M  V30 7 2 9 10
M  V30 8 1 10 11
M  V30 9 2 11 12
M  V30 10 1 7 13
M  V30 11 2 13 14
M  V30 12 2 13 15
M  V30 13 1 13 16
M  V30 14 2 16 17
M  V30 15 1 17 18
M  V30 16 2 18 19
M  V30 17 1 19 20
M  V30 18 2 20 21
M  V30 19 1 21 22
M  V30 20 2 22 23
M  V30 21 1 23 24
M  V30 22 2 24 25
M  V30 23 1 20 26
M  V30 24 2 26 27
M  V30 25 1 27 28
M  V30 26 2 28 29
M  V30 27 1 29 30
M  V30 28 2 30 31
M  V30 29 1 12 3
M  V30 30 1 31 26
M  V30 31 1 10 5
M  V30 32 1 25 16
M  V30 33 1 23 18
M  V30 34 1 1 3
M  V30 35 1 2 29
M  V30 END BOND
M  V30 BEGIN SGROUP
M  V30 1 SRU 0 ATOMS=(4 1 2 3 29) CBONDS=(2 34 35) -
M  V30 BRKXYZ=(9 -6.2632 3.3683 0 -6.2632 -4.6314 0 0 0 0) BRKXYZ=(9 6.1958 3.-
M  V30 6182 0 6.1958 -4.3815 0 0 0 0)
M  V30 END SGROUP
M  V30 END CTAB
M  END
>  <BIGSMILES_BRACKET_RECORDS_JSON>
{
  "records": [
    {
      "id": 0,
      "bracket_kind": "backbone",
      "pairing_id": "F1/mergedFragments[0]",
      "group_id": "<1:3",
      "ru_midpoint": [
        -0.11474027157055477,
        -0.3815732006643979
      ],
      "bond_midpoint": [
        -6.263202257029379,
        -0.6315433431999715
      ],
      "orientation_vector": [
        0.0,
        1.0
      ],
      "half_bracket_size": 3.999851294958273,
      "bond": [
        0,
        2
      ],
      "fragment": "F1",
      "backbone": true,
      "suspended_anchor_atom": null,
      "suspended_reason": null,
      "source_label": "F1/mergedFragments[0]",
      "marker_id": "0",
      "side": "left",
      "connection_group": "<1",
      "marker_type_index": 3
    },
    {
      "id": 1,
      "bracket_kind": "backbone",
      "pairing_id": "F1/mergedFragments[0]",
      "group_id": ">1:4",
      "ru_midpoint": [
        -0.11474027157055477,
        -0.3815732006643979
      ],
      "bond_midpoint": [
        6.1958298064115125,
        -0.3816933989739833
      ],
      "orientation_vector": [
        0.0,
        1.0
      ],
      "half_bracket_size": 3.999851294958273,
      "bond": [
        1,
        28
      ],
      "fragment": "F1",
      "backbone": true,
      "suspended_anchor_atom": null,
      "suspended_reason": null,
      "source_label": "F1/mergedFragments[0]",
      "marker_id": "30",
      "side": "right",
      "connection_group": ">1",
      "marker_type_index": 4
    }
  ]
}
