
     RDKit          2D

  0  0  0  0  0  0  0  0  0  0999 V3000
M  V30 BEGIN CTAB
M  V30 COUNTS 5 4 1 0 0
M  V30 BEGIN ATOM
M  V30 1 C -1.732381 -0.348599 0.000000 0
M  V30 2 Cl 1.731889 -0.348545 0.000000 0
M  V30 3 O -0.866319 0.151339 0.000000 0
M  V30 4 C -0.000315 -0.348561 0.000000 0
M  V30 5 C 0.865797 0.151339 0.000000 0
M  V30 END ATOM
M  V30 BEGIN BOND
M  V30 1 1 3 4
M  V30 2 1 4 5
M  V30 3 1 1 3
M  V30 4 1 2 5
M  V30 END BOND
M  V30 BEGIN SGROUP
M  V30 1 SRU 0 ATOMS=(4 1 2 3 5) CBONDS=(2 3 4) -
M  V30 BRKXYZ=(9 -1.2993 -0.5985 0 -1.2993 0.4013 0 0 0 0) BRKXYZ=(9 1.2988 -0-
M  V30 .5985 0 1.2988 0.4013 0 0 0 0)
M  V30 END SGROUP
M  V30 END CTAB
M  END
>  <BIGSMILES_BRACKET_RECORDS_JSON>
{
  "records": [
    {
      "id": 0,
      "bracket_kind": "backbone",
      "pairing_id": "F1/fragments[0]",
      "group_id": "<1:3",
      "ru_midpoint": [
        -0.0002472831662319264,
        -0.14860134372019052
      ],
      "bond_midpoint": [
        -1.299349927486357,
        -0.09863012608515329
      ],
      "orientation_vector": [
        0.0,
        -1.0
      ],
      "half_bracket_size": 0.49990016001536197,
      "bond": [
        0,
        2
      ],
      "fragment": "F1",
      "backbone": true,
      "suspended_anchor_atom": null,
      "suspended_reason": null,
      "source_label": "F1/fragments[0]",
      "marker_id": "0",
      "side": "left",
      "connection_group": "<1",
      "marker_type_index": 3
    },
    {
      "id": 1,
      "bracket_kind": "backbone",
      "pairing_id": "F1/fragments[0]",
      "group_id": ">1:4",
      "ru_midpoint": [
        -0.0002472831662319264,
        -0.14860134372019052
      ],
      "bond_midpoint": [
        1.2988427471279804,
        -0.09860332969999697
      ],
      "orientation_vector": [
        0.0,
        -1.0
      ],
      "half_bracket_size": 0.49990016001536197,
      "bond": [
        1,
        4
      ],
      "fragment": "F1",
      "backbone": true,
      "suspended_anchor_atom": null,
      "suspended_reason": null,
      "source_label": "F1/fragments[0]",
      "marker_id": "4",
      "side": "right",
      "connection_group": ">1",
      "marker_type_index": 4
    }
  ]
}
