
     RDKit          2D

  0  0  0  0  0  0  0  0  0  0999 V3000
M  V30 BEGIN CTAB
M  V30 COUNTS 33 32 2 0 0
M  V30 BEGIN ATOM
M  V30 1 O 9.618652 0.337154 0.000000 0
M  V30 2 C 13.082460 0.337100 0.000000 0
M  V30 3 O 13.082457 -0.662900 0.000000 0
M  V30 4 C 13.948464 0.837000 0.000000 0
M  V30 5 C 13.948464 -0.162932 0.000000 0
M  V30 6 C 13.948464 1.837025 0.000000 0
M  V30 7 S 14.814460 0.337100 0.000000 0
M  V30 8 C 15.680464 0.837000 0.000000 0
M  V30 9 S 15.680464 1.837000 0.000000 0
M  V30 10 S 16.546461 0.337100 0.000000 0
M  V30 11 C 19.144609 0.837038 0.000000 0
M  V30 12 C 20.010729 0.337137 0.000000 0
M  V30 13 C 20.876841 0.837038 0.000000 0
M  V30 14 C 21.742961 0.337137 0.000000 0
M  V30 15 C 22.609072 0.837038 0.000000 0
M  V30 16 C 23.475192 0.337137 0.000000 0
M  V30 17 C 24.341304 0.837038 0.000000 0
M  V30 18 C 25.207308 0.337137 0.000000 0
M  V30 19 C 26.073305 0.837038 0.000000 0
M  V30 20 C 26.939309 0.337137 0.000000 0
M  V30 21 C 27.805305 0.837038 0.000000 0
M  V30 22 C 28.671309 0.337137 0.000000 0
M  V30 23 C 10.484629 0.837238 0.000000 0
M  V30 24 C 11.350625 0.337138 0.000000 0
M  V30 25 O 12.216514 0.837238 0.000000 0
M  V30 26 C 17.412522 0.837038 0.000000 0
M  V30 27 C 18.278526 0.337138 0.000000 0
M  V30 28 C 18.278526 -0.662787 0.000000 0
M  V30 29 O 19.144592 -1.162718 0.000000 0
M  V30 30 N 17.412634 -1.162881 0.000000 0
M  V30 31 C 17.412634 -2.162806 0.000000 0
M  V30 32 C 16.546741 -2.662900 0.000000 0
M  V30 33 C 18.278700 -2.662737 0.000000 0
M  V30 END ATOM
M  V30 BEGIN BOND
M  V30 1 2 2 3
M  V30 2 1 2 4
M  V30 3 1 4 5
M  V30 4 1 4 6
M  V30 5 1 4 7
M  V30 6 1 7 8
M  V30 7 2 8 9
M  V30 8 1 8 10
M  V30 9 1 11 12
M  V30 10 1 12 13
M  V30 11 1 13 14
M  V30 12 1 14 15
M  V30 13 1 15 16
M  V30 14 1 16 17
M  V30 15 1 17 18
M  V30 16 1 18 19
M  V30 17 1 19 20
M  V30 18 1 20 21
M  V30 19 1 21 22
M  V30 20 1 23 24
M  V30 21 1 24 25
M  V30 22 1 1 23
M  V30 23 1 2 25
M  V30 24 1 26 27
M  V30 25 1 27 28
M  V30 26 2 28 29
M  V30 27 1 28 30
M  V30 28 1 30 31
M  V30 29 1 31 32
M  V30 30 1 31 33
M  V30 31 1 10 26
M  V30 32 1 11 27
M  V30 END BOND
M  V30 BEGIN SGROUP
M  V30 1 SRU 0 ATOMS=(4 10 11 26 27) CBONDS=(2 31 32) -
M  V30 BRKXYZ=(9 16.9795 1.0870 0 16.9795 0.0872 0 0 0 0) BRKXYZ=(9 18.7116 1.-
M  V30 0870 0 18.7116 0.0872 0 0 0 0)
M  V30 2 SRU 0 ATOMS=(4 1 2 23 25) CBONDS=(2 22 23) -
M  V30 BRKXYZ=(9 10.0516 0.0871 0 10.0516 1.0873 0 0 0 0) BRKXYZ=(9 12.6495 0.-
M  V30 0871 0 12.6495 1.0873 0 0 0 0)
M  V30 END SGROUP
M  V30 END CTAB
M  END
>  <BIGSMILES_BRACKET_RECORDS_JSON>
{
  "records": [
    {
      "id": 0,
      "bracket_kind": "backbone",
      "pairing_id": "F2/fragments[0]",
      "group_id": "$a:2",
      "ru_midpoint": [
        17.845545973796455,
        0.5870876917496992
      ],
      "bond_midpoint": [
        16.979491325372223,
        0.5870688933831998
      ],
      "orientation_vector": [
        0.0,
        1.0
      ],
      "half_bracket_size": 0.49990016001536197,
      "bond": [
        9,
        25
      ],
      "fragment": "F2",
      "backbone": true,
      "suspended_anchor_atom": null,
      "suspended_reason": null,
      "source_label": "F2/fragments[0]",
      "marker_id": "0",
      "side": "left",
      "connection_group": "$a",
      "marker_type_index": 2
    },
    {
      "id": 1,
      "bracket_kind": "backbone",
      "pairing_id": "F2/fragments[0]",
      "group_id": "$a:2",
      "ru_midpoint": [
        17.845545973796455,
        0.5870876917496992
      ],
      "bond_midpoint": [
        18.711567918516643,
        0.5870876117657118
      ],
      "orientation_vector": [
        0.0,
        1.0
      ],
      "half_bracket_size": 0.49990016001536197,
      "bond": [
        10,
        26
      ],
      "fragment": "F2",
      "backbone": true,
      "suspended_anchor_atom": null,
      "suspended_reason": null,
      "source_label": "F2/fragments[0]",
      "marker_id": "9",
      "side": "right",
      "connection_group": "$a",
      "marker_type_index": 2
    },
    {
      "id": 2,
      "bracket_kind": "backbone",
      "pairing_id": "F1/fragments[0]",
      "group_id": "<1:3",
      "ru_midpoint": [
        11.350557174325422,
        0.5371776907637195
      ],
      "bond_midpoint": [
        10.051640350040474,
        0.5871957079772245
      ],
      "orientation_vector": [
        0.0,
        -1.0
      ],
      "half_bracket_size": 0.5001001599500253,
      "bond": [
        0,
        22
      ],
      "fragment": "F1",
      "backbone": true,
      "suspended_anchor_atom": null,
      "suspended_reason": null,
      "source_label": "F1/fragments[0]",
      "marker_id": "0",
      "side": "left",
      "connection_group": "<1",
      "marker_type_index": 3
    },
    {
      "id": 3,
      "bracket_kind": "backbone",
      "pairing_id": "F1/fragments[0]",
      "group_id": ">1:4",
      "ru_midpoint": [
        11.350557174325422,
        0.5371776907637195
      ],
      "bond_midpoint": [
        12.649486601937983,
        0.5871689008713773
      ],
      "orientation_vector": [
        0.0,
        -1.0
      ],
      "half_bracket_size": 0.5001001599500253,
      "bond": [
        1,
        24
      ],
      "fragment": "F1",
      "backbone": true,
      "suspended_anchor_atom": null,
      "suspended_reason": null,
      "source_label": "F1/fragments[0]",
      "marker_id": "4",
      "side": "right",
      "connection_group": ">1",
      "marker_type_index": 4
    }
  ]
}
