
     RDKit          2D

  0  0  0  0  0  0  0  0  0  0999 V3000
M  V30 BEGIN CTAB
M  V30 COUNTS 10 9 1 0 0
M  V30 BEGIN ATOM
M  V30 1 O -3.031642 0.001077 0.000000 0
M  V30 2 H 3.897184 0.001043 0.000000 0
M  V30 3 C -2.165575 -0.498850 0.000000 0
M  V30 4 O -2.165565 -1.498852 0.000000 0
M  V30 5 C -1.299592 0.001050 0.000000 0
M  V30 6 C -0.433571 -0.498850 0.000000 0
M  V30 7 C 0.432527 0.001050 0.000000 0
M  V30 8 C 1.298863 -0.498850 0.000000 0
M  V30 9 C 2.164962 0.001050 0.000000 0
M  V30 10 N 3.031097 -0.498850 0.000000 0
M  V30 END ATOM
M  V30 BEGIN BOND
M  V30 1 2 3 4
M  V30 2 1 3 5
M  V30 3 1 5 6
M  V30 4 1 6 7
M  V30 5 1 7 8
M  V30 6 1 8 9
M  V30 7 1 9 10
M  V30 8 1 1 3
M  V30 9 1 2 10
M  V30 END BOND
M  V30 BEGIN SGROUP
M  V30 1 SRU 0 ATOMS=(4 1 2 3 10) CBONDS=(2 8 9) -
M  V30 BRKXYZ=(9 -2.5986 0.2510 0 -2.5986 -0.7488 0 0 0 0) BRKXYZ=(9 3.4641 0.-
M  V30 2510 0 3.4641 -0.7488 0 0 0 0)
M  V30 END SGROUP
M  V30 END CTAB
M  END
>  <BIGSMILES_BRACKET_RECORDS_JSON>
{
  "records": [
    {
      "id": 0,
      "bracket_kind": "backbone",
      "pairing_id": "F1/fragments[0]",
      "group_id": ">1:4",
      "ru_midpoint": [
        0.432701455179755,
        -0.22112772223053767
      ],
      "bond_midpoint": [
        -2.598608231852787,
        -0.2488865315785366
      ],
      "orientation_vector": [
        0.0,
        1.0
      ],
      "half_bracket_size": 0.4999009998503262,
      "bond": [
        0,
        2
      ],
      "fragment": "F1",
      "backbone": true,
      "suspended_anchor_atom": null,
      "suspended_reason": null,
      "source_label": "F1/fragments[0]",
      "marker_id": "0",
      "side": "left",
      "connection_group": ">1",
      "marker_type_index": 4
    },
    {
      "id": 1,
      "bracket_kind": "backbone",
      "pairing_id": "F1/fragments[0]",
      "group_id": "<1:3",
      "ru_midpoint": [
        0.432701455179755,
        -0.22112772223053767
      ],
      "bond_midpoint": [
        3.464140658221985,
        -0.24890352922631087
      ],
      "orientation_vector": [
        0.0,
        1.0
      ],
      "half_bracket_size": 0.4999009998503262,
      "bond": [
        1,
        9
      ],
      "fragment": "F1",
      "backbone": true,
      "suspended_anchor_atom": null,
      "suspended_reason": null,
      "source_label": "F1/fragments[0]",
      "marker_id": "9",
      "side": "right",
      "connection_group": "<1",
      "marker_type_index": 3
    }
  ]
}
