
     RDKit          2D

  0  0  0  0  0  0  0  0  0  0999 V3000
M  V30 BEGIN CTAB
M  V30 COUNTS 11 10 3 0 0
M  V30 BEGIN ATOM
M  V30 1 O -2.598262 -0.498932 0.000000 0
M  V30 2 H 3.463878 0.001137 0.000000 0
M  V30 3 C -1.732284 0.001149 0.000000 0
M  V30 4 O -1.732279 1.001156 0.000000 0
M  V30 5 C -0.866288 -0.498954 0.000000 0
M  V30 6 C -0.866288 -1.498960 0.000000 0
M  V30 7 N -0.000273 0.001149 0.000000 0
M  V30 8 C 0.865693 -0.498954 0.000000 0
M  V30 9 O 0.865698 -1.498761 0.000000 0
M  V30 10 C 1.731689 0.001149 0.000000 0
M  V30 11 N 2.597905 -0.498954 0.000000 0
M  V30 END ATOM
M  V30 BEGIN BOND
M  V30 1 2 3 4
M  V30 2 1 3 5
M  V30 3 1 5 6
M  V30 4 1 5 7
M  V30 5 2 8 9
M  V30 6 1 8 10
M  V30 7 1 10 11
M  V30 8 1 7 8
M  V30 9 1 1 3
M  V30 10 1 2 11
M  V30 END BOND
M  V30 BEGIN SGROUP
M  V30 1 SRU 0 ATOMS=(4 1 3 7 8) CBONDS=(2 8 9) -
M  V30 BRKXYZ=(9 -2.1653 -0.7490 0 -2.1653 0.2512 0 0 0 0) BRKXYZ=(9 0.4327 -0-
M  V30 .7490 0 0.4327 0.2512 0 0 0 0)
M  V30 2 SRU 0 ATOMS=(4 2 7 8 11) CBONDS=(2 8 10) -
M  V30 BRKXYZ=(9 0.4327 0.2512 0 0.4327 -0.7490 0 0 0 0) BRKXYZ=(9 3.0309 0.25-
M  V30 12 0 3.0309 -0.7490 0 0 0 0)
M  V30 3 SRU 0 ATOMS=(4 1 2 3 11) CBONDS=(2 9 10) -
M  V30 BRKXYZ=(9 -2.1653 -2.7490 0 -2.1653 2.2512 0 0 0 0) BRKXYZ=(9 3.0309 -2-
M  V30 .7490 0 3.0309 2.2512 0 0 0 0)
M  V30 END SGROUP
M  V30 END CTAB
M  END
>  <BIGSMILES_BRACKET_RECORDS_JSON>
{
  "records": [
    {
      "id": 0,
      "bracket_kind": "backbone",
      "pairing_id": "F1/fragments[0]",
      "group_id": "<1:3",
      "ru_midpoint": [
        -0.8662841624229509,
        -0.29891244664354627
      ],
      "bond_midpoint": [
        -2.1652729212882638,
        -0.24889139119436782
      ],
      "orientation_vector": [
        0.0,
        -1.0
      ],
      "half_bracket_size": 0.5001032392455474,
      "bond": [
        0,
        2
      ],
      "fragment": "F1",
      "backbone": true,
      "suspended_anchor_atom": null,
      "suspended_reason": null,
      "source_label": "F1/fragments[0]",
      "marker_id": "0",
      "side": "left",
      "connection_group": "<1",
      "marker_type_index": 3
    },
    {
      "id": 1,
      "bracket_kind": "backbone",
      "pairing_id": "F1/fragments[0]",
      "group_id": ">1:4",
      "ru_midpoint": [
        -0.8662841624229509,
        -0.29891244664354627
      ],
      "bond_midpoint": [
        0.43271016342395763,
        -0.2489021227189917
      ],
      "orientation_vector": [
        0.0,
        -1.0
      ],
      "half_bracket_size": 0.5001032392455474,
      "bond": [
        6,
        7
      ],
      "fragment": "F1",
      "backbone": true,
      "suspended_anchor_atom": null,
      "suspended_reason": null,
      "source_label": "F1/fragments[0]",
      "marker_id": "6",
      "side": "right",
      "connection_group": ">1",
      "marker_type_index": 4
    },
    {
      "id": 2,
      "bracket_kind": "backbone",
      "pairing_id": "F1/fragments[1]",
      "group_id": "<1:3",
      "ru_midpoint": [
        1.7317728897345805,
        -0.19889179879443714
      ],
      "bond_midpoint": [
        0.43271016342395763,
        -0.2489021227189917
      ],
      "orientation_vector": [
        0.0,
        1.0
      ],
      "half_bracket_size": 0.5001032392455474,
      "bond": [
        6,
        7
      ],
      "fragment": "F1",
      "backbone": true,
      "suspended_anchor_atom": null,
      "suspended_reason": null,
      "source_label": "F1/fragments[1]",
      "marker_id": "0",
      "side": "left",
      "connection_group": "<1",
      "marker_type_index": 3
    },
    {
      "id": 3,
      "bracket_kind": "backbone",
      "pairing_id": "F1/fragments[1]",
      "group_id": ">1:4",
      "ru_midpoint": [
        1.7317728897345805,
        -0.19889179879443714
      ],
      "bond_midpoint": [
        3.0308912085254054,
        -0.24890860880563254
      ],
      "orientation_vector": [
        0.0,
        1.0
      ],
      "half_bracket_size": 0.5001032392455474,
      "bond": [
        1,
        10
      ],
      "fragment": "F1",
      "backbone": true,
      "suspended_anchor_atom": null,
      "suspended_reason": null,
      "source_label": "F1/fragments[1]",
      "marker_id": "5",
      "side": "right",
      "connection_group": ">1",
      "marker_type_index": 4
    },
    {
      "id": 4,
      "bracket_kind": "backbone",
      "pairing_id": "F1/connected",
      "group_id": "$overall",
      "ru_midpoint": [
        0.4327553646218636,
        -0.24890212271899165
      ],
      "bond_midpoint": [
        -2.1652729212882638,
        -0.24889139119436782
      ],
      "orientation_vector": [
        0.0,
        -1.0
      ],
      "half_bracket_size": 2.50011619919154,
      "bond": [
        0,
        2
      ],
      "fragment": "F1",
      "backbone": true,
      "suspended_anchor_atom": null,
      "suspended_reason": null,
      "source_label": "F1/connected",
      "marker_id": "connected-overall-left",
      "side": "left",
      "connection_group": "$overall",
      "marker_type_index": null
    },
    {
      "id": 5,
      "bracket_kind": "backbone",
      "pairing_id": "F1/connected",
      "group_id": "$overall",
      "ru_midpoint": [
        0.4327553646218636,
        -0.24890212271899165
      ],
      "bond_midpoint": [
        3.0308912085254054,
        -0.24890860880563254
      ],
      "orientation_vector": [
        0.0,
        -1.0
      ],
      "half_bracket_size": 2.50011619919154,
      "bond": [
        1,
        10
      ],
      "fragment": "F1",
      "backbone": true,
      "suspended_anchor_atom": null,
      "suspended_reason": null,
      "source_label": "F1/connected",
      "marker_id": "connected-overall-right",
      "side": "right",
      "connection_group": "$overall",
      "marker_type_index": null
    }
  ]
}
