
     RDKit          2D

  0  0  0  0  0  0  0  0  0  0999 V3000
M  V30 BEGIN CTAB
M  V30 COUNTS 42 44 2 0 0
M  V30 BEGIN ATOM
M  V30 1 H 3.897074 -0.252529 0.000000 0
M  V30 2 H 8.227349 0.247471 0.000000 0
M  V30 3 C 4.763146 0.247443 0.000000 0
M  V30 4 C 5.629218 -0.252529 0.000000 0
M  V30 5 C 5.629218 -1.983683 0.000000 0
M  V30 6 C 6.495224 -2.483768 0.000000 0
M  V30 7 C 6.495225 -3.483775 0.000000 0
M  V30 8 C 7.361230 -3.983660 0.000000 0
M  V30 9 O 8.227236 -3.483738 0.000000 0
M  V30 10 O 7.361231 -4.983666 0.000000 0
M  V30 11 C 8.227237 -5.483551 0.000000 0
M  V30 12 C 9.093242 -4.983630 0.000000 0
M  V30 13 C 9.959248 -5.483715 0.000000 0
M  V30 14 C 9.959449 -6.483720 0.000000 0
M  V30 15 O 10.825255 -6.983606 0.000000 0
M  V30 16 C 10.825255 -7.983613 0.000000 0
M  V30 17 C 11.691261 -8.483498 0.000000 0
M  V30 18 C 11.691262 -9.483504 0.000000 0
M  V30 19 C 12.557268 -9.983589 0.000000 0
M  V30 20 C 9.093244 -6.983643 0.000000 0
M  V30 21 C 8.227237 -6.483558 0.000000 0
M  V30 22 C 5.629220 -3.983896 0.000000 0
M  V30 23 C 4.763214 -3.483811 0.000000 0
M  V30 24 C 4.763213 -2.483805 0.000000 0
M  V30 25 C 3.897207 -1.983720 0.000000 0
M  V30 26 O 3.897207 -0.983913 0.000000 0
M  V30 27 O 3.031202 -2.483841 0.000000 0
M  V30 28 C 2.165196 -1.983956 0.000000 0
M  V30 29 C 1.299191 -2.483877 0.000000 0
M  V30 30 C 0.433184 -1.983792 0.000000 0
M  V30 31 C 0.432984 -0.983787 0.000000 0
M  V30 32 O -0.432822 -0.483901 0.000000 0
M  V30 33 C -1.298827 -0.983822 0.000000 0
M  V30 34 C -2.164833 -0.483937 0.000000 0
M  V30 35 C -3.030838 -0.983859 0.000000 0
M  V30 36 C -3.897044 -0.483975 0.000000 0
M  V30 37 C 1.299189 -0.483865 0.000000 0
M  V30 38 C 2.165196 -0.983950 0.000000 0
M  V30 39 Si 6.495243 0.247471 0.000000 0 VAL=4
M  V30 40 C 6.495243 -0.752454 0.000000 0
M  V30 41 C 6.495243 1.247496 0.000000 0
M  V30 42 O 7.361296 -0.252545 0.000000 0
M  V30 END ATOM
M  V30 BEGIN BOND
M  V30 1 1 3 4
M  V30 2 1 4 5
M  V30 3 2 5 6
M  V30 4 1 6 7
M  V30 5 1 7 8
M  V30 6 2 8 9
M  V30 7 1 8 10
M  V30 8 1 10 11
M  V30 9 2 11 12
M  V30 10 1 12 13
M  V30 11 2 13 14
M  V30 12 1 14 15
M  V30 13 1 15 16
M  V30 14 1 16 17
M  V30 15 1 17 18
M  V30 16 1 18 19
M  V30 17 1 14 20
M  V30 18 2 20 21
M  V30 19 2 7 22
M  V30 20 1 22 23
M  V30 21 2 23 24
M  V30 22 1 24 25
M  V30 23 2 25 26
M  V30 24 1 25 27
M  V30 25 1 27 28
M  V30 26 2 28 29
M  V30 27 1 29 30
M  V30 28 2 30 31
M  V30 29 1 31 32
M  V30 30 1 32 33
M  V30 31 1 33 34
M  V30 32 1 34 35
M  V30 33 1 35 36
M  V30 34 1 31 37
M  V30 35 2 37 38
M  V30 36 1 24 5
M  V30 37 1 21 11
M  V30 38 1 38 28
M  V30 39 1 1 3
M  V30 40 1 39 40
M  V30 41 1 39 41
M  V30 42 1 39 42
M  V30 43 1 4 39
M  V30 44 1 2 42
M  V30 END BOND
M  V30 BEGIN SGROUP
M  V30 1 SRU 0 ATOMS=(4 2 4 39 42) CBONDS=(2 43 44) -
M  V30 BRKXYZ=(9 6.0622 -0.5025 0 6.0622 0.4975 0 0 0 0) BRKXYZ=(9 7.7943 -0.5-
M  V30 026 0 7.7943 0.4975 0 0 0 0)
M  V30 2 SRU 0 ATOMS=(4 1 3 4 39) CBONDS=(2 39 43) -
M  V30 BRKXYZ=(9 4.3301 0.4974 0 4.3301 -0.5025 0 0 0 0) BRKXYZ=(9 6.0622 0.49-
M  V30 74 0 6.0622 -0.5025 0 0 0 0)
M  V30 END SGROUP
M  V30 END CTAB
M  END
>  <BIGSMILES_BRACKET_RECORDS_JSON>
{
  "records": [
    {
      "id": 0,
      "bracket_kind": "backbone",
      "pairing_id": "F2/fragments[0]",
      "group_id": "<1:3",
      "ru_midpoint": [
        6.928282524221153,
        -0.002530824037573302
      ],
      "bond_midpoint": [
        6.062230467498448,
        -0.0025289891348045795
      ],
      "orientation_vector": [
        0.0,
        -1.0
      ],
      "half_bracket_size": 0.5000159997440081,
      "bond": [
        3,
        38
      ],
      "fragment": "F2",
      "backbone": true,
      "suspended_anchor_atom": null,
      "suspended_reason": null,
      "source_label": "F2/fragments[0]",
      "marker_id": "0",
      "side": "left",
      "connection_group": "<1",
      "marker_type_index": 3
    },
    {
      "id": 1,
      "bracket_kind": "backbone",
      "pairing_id": "F2/fragments[0]",
      "group_id": ">1:4",
      "ru_midpoint": [
        6.928282524221153,
        -0.002530824037573302
      ],
      "bond_midpoint": [
        7.79432284362162,
        -0.002536989006808668
      ],
      "orientation_vector": [
        0.0,
        -1.0
      ],
      "half_bracket_size": 0.5000159997440081,
      "bond": [
        1,
        41
      ],
      "fragment": "F2",
      "backbone": true,
      "suspended_anchor_atom": null,
      "suspended_reason": null,
      "source_label": "F2/fragments[0]",
      "marker_id": "5",
      "side": "right",
      "connection_group": ">1",
      "marker_type_index": 4
    },
    {
      "id": 2,
      "bracket_kind": "backbone",
      "pairing_id": "F1/fragments[0]",
      "group_id": "$a:2",
      "ru_midpoint": [
        5.196178416553511,
        -0.0025447244891937766
      ],
      "bond_midpoint": [
        4.3301102843776755,
        -0.0025431045964076637
      ],
      "orientation_vector": [
        0.0,
        1.0
      ],
      "half_bracket_size": 0.49997176907679464,
      "bond": [
        0,
        2
      ],
      "fragment": "F1",
      "backbone": true,
      "suspended_anchor_atom": null,
      "suspended_reason": null,
      "source_label": "F1/fragments[0]",
      "marker_id": "0",
      "side": "left",
      "connection_group": "$a",
      "marker_type_index": 2
    },
    {
      "id": 3,
      "bracket_kind": "backbone",
      "pairing_id": "F1/fragments[0]",
      "group_id": "$a:2",
      "ru_midpoint": [
        5.196178416553511,
        -0.0025447244891937766
      ],
      "bond_midpoint": [
        6.062230467498448,
        -0.0025289891348045795
      ],
      "orientation_vector": [
        0.0,
        1.0
      ],
      "half_bracket_size": 0.49997176907679464,
      "bond": [
        3,
        38
      ],
      "fragment": "F1",
      "backbone": true,
      "suspended_anchor_atom": null,
      "suspended_reason": null,
      "source_label": "F1/fragments[0]",
      "marker_id": "37",
      "side": "right",
      "connection_group": "$a",
      "marker_type_index": 2
    }
  ]
}
