
     RDKit          2D

  0  0  0  0  0  0  0  0  0  0999 V3000
M  V30 BEGIN CTAB
M  V30 COUNTS 25 24 7 0 0
M  V30 BEGIN ATOM
M  V30 1 H -0.571881 0.247778 0.000000 0
M  V30 2 H 12.696187 0.747716 0.000000 0
M  V30 3 C 0.294123 0.747679 0.000000 0
M  V30 4 C 1.160127 0.247778 0.000000 0
M  V30 5 C 2.026123 0.747679 0.000000 0
M  V30 6 C 2.026123 1.747679 0.000000 0
M  V30 7 C 2.892128 0.247778 0.000000 0
M  V30 8 C 3.758211 0.747679 0.000000 0
M  V30 9 C 4.624207 0.247778 0.000000 0
M  V30 10 C 4.624207 -0.752153 0.000000 0
M  V30 11 C 3.758321 -1.252244 0.000000 0
M  V30 12 C 5.490267 -1.252095 0.000000 0
M  V30 13 C 5.768025 0.747679 0.000000 0
M  V30 14 C 6.634029 0.247778 0.000000 0
M  V30 15 C 6.634029 1.247703 0.000000 0
M  V30 16 C 6.634029 -0.752146 0.000000 0
M  V30 17 C 5.768136 -1.252240 0.000000 0
M  V30 18 C 7.500090 0.747716 0.000000 0
M  V30 19 C 8.366095 0.247816 0.000000 0
M  V30 20 C 9.232091 0.747716 0.000000 0
M  V30 21 C 10.098095 0.247816 0.000000 0
M  V30 22 C 10.964178 0.747716 0.000000 0
M  V30 23 C 11.830183 0.247816 0.000000 0
M  V30 24 C 11.830183 -0.752209 0.000000 0
M  V30 25 C 10.964030 -1.252053 0.000000 0
M  V30 END ATOM
M  V30 BEGIN BOND
M  V30 1 1 3 4
M  V30 2 1 4 5
M  V30 3 1 5 6
M  V30 4 1 5 7
M  V30 5 1 8 9
M  V30 6 1 9 10
M  V30 7 1 10 11
M  V30 8 1 10 12
M  V30 9 1 7 8
M  V30 10 1 13 14
M  V30 11 1 14 15
M  V30 12 1 14 16
M  V30 13 1 16 17
M  V30 14 1 9 13
M  V30 15 1 1 3
M  V30 16 1 18 19
M  V30 17 1 19 20
M  V30 18 1 20 21
M  V30 19 1 22 23
M  V30 20 1 23 24
M  V30 21 1 24 25
M  V30 22 1 21 22
M  V30 23 1 14 18
M  V30 24 1 2 23
M  V30 END BOND
M  V30 BEGIN SGROUP
M  V30 1 SRU 0 ATOMS=(4 14 18 21 22) CBONDS=(2 22 23) -
M  V30 BRKXYZ=(9 7.0671 0.9976 0 7.0671 -0.0022 0 0 0 0) BRKXYZ=(9 10.5311 0.9-
M  V30 977 0 10.5311 -0.0021 0 0 0 0)
M  V30 2 SRU 0 ATOMS=(4 2 21 22 23) CBONDS=(2 22 24) -
M  V30 BRKXYZ=(9 10.5311 0.9977 0 10.5311 -0.0021 0 0 0 0) BRKXYZ=(9 12.2632 0-
M  V30 .9977 0 12.2632 -0.0021 0 0 0 0)
M  V30 3 SRU 0 ATOMS=(4 2 14 18 23) CBONDS=(2 23 24) -
M  V30 BRKXYZ=(9 7.0671 2.4975 0 7.0671 -1.5020 0 0 0 0) BRKXYZ=(9 12.2632 2.4-
M  V30 975 0 12.2632 -1.5020 0 0 0 0)
M  V30 4 SRU 0 ATOMS=(4 1 3 7 8) CBONDS=(2 9 15) -
M  V30 BRKXYZ=(9 -0.1389 -0.0022 0 -0.1389 0.9976 0 0 0 0) BRKXYZ=(9 3.3252 -0-
M  V30 .0022 0 3.3252 0.9976 0 0 0 0)
M  V30 5 SRU 0 ATOMS=(4 7 8 9 13) CBONDS=(2 9 14) -
M  V30 BRKXYZ=(9 3.3252 0.9976 0 3.3252 -0.0022 0 0 0 0) BRKXYZ=(9 5.1961 0.99-
M  V30 76 0 5.1961 -0.0022 0 0 0 0)
M  V30 6 SRU 0 ATOMS=(4 9 13 14 18) CBONDS=(2 14 23) -
M  V30 BRKXYZ=(9 5.1961 0.9976 0 5.1961 -0.0022 0 0 0 0) BRKXYZ=(9 7.0671 0.99-
M  V30 76 0 7.0671 -0.0022 0 0 0 0)
M  V30 7 SRU 0 ATOMS=(4 1 3 14 18) CBONDS=(2 15 23) -
M  V30 BRKXYZ=(9 -0.1389 -2.5022 0 -0.1389 3.4977 0 0 0 0) BRKXYZ=(9 7.0671 -2-
M  V30 .5022 0 7.0671 3.4977 0 0 0 0)
M  V30 END SGROUP
M  V30 END CTAB
M  END
>  <BIGSMILES_BRACKET_RECORDS_JSON>
{
  "records": [
    {
      "id": 0,
      "bracket_kind": "backbone",
      "pairing_id": "F2/fragments[0]",
      "group_id": "$a:2",
      "ru_midpoint": [
        8.799092664587143,
        0.49776607597965866
      ],
      "bond_midpoint": [
        7.067059533636609,
        0.4977472776131595
      ],
      "orientation_vector": [
        0.0,
        1.0
      ],
      "half_bracket_size": 0.49990016001536275,
      "bond": [
        13,
        17
      ],
      "fragment": "F2",
      "backbone": true,
      "suspended_anchor_atom": null,
      "suspended_reason": null,
      "source_label": "F2/fragments[0]",
      "marker_id": "0",
      "side": "left",
      "connection_group": "$a",
      "marker_type_index": 2
    },
    {
      "id": 1,
      "bracket_kind": "backbone",
      "pairing_id": "F2/fragments[0]",
      "group_id": "$a:2",
      "ru_midpoint": [
        8.799092664587143,
        0.49776607597965866
      ],
      "bond_midpoint": [
        10.531136646434323,
        0.4977660759796589
      ],
      "orientation_vector": [
        0.0,
        1.0
      ],
      "half_bracket_size": 0.49990016001536275,
      "bond": [
        20,
        21
      ],
      "fragment": "F2",
      "backbone": true,
      "suspended_anchor_atom": null,
      "suspended_reason": null,
      "source_label": "F2/fragments[0]",
      "marker_id": "5",
      "side": "right",
      "connection_group": "$a",
      "marker_type_index": 2
    },
    {
      "id": 2,
      "bracket_kind": "backbone",
      "pairing_id": "F2/fragments[1]",
      "group_id": "$a:2",
      "ru_midpoint": [
        11.397162759772456,
        0.49776615596364615
      ],
      "bond_midpoint": [
        10.531136646434323,
        0.4977660759796589
      ],
      "orientation_vector": [
        0.0,
        1.0
      ],
      "half_bracket_size": 0.49990016001536275,
      "bond": [
        20,
        21
      ],
      "fragment": "F2",
      "backbone": true,
      "suspended_anchor_atom": null,
      "suspended_reason": null,
      "source_label": "F2/fragments[1]",
      "marker_id": "0",
      "side": "left",
      "connection_group": "$a",
      "marker_type_index": 2
    },
    {
      "id": 3,
      "bracket_kind": "backbone",
      "pairing_id": "F2/fragments[1]",
      "group_id": "$a:2",
      "ru_midpoint": [
        11.397162759772456,
        0.49776615596364615
      ],
      "bond_midpoint": [
        12.263184704492641,
        0.49776607597965883
      ],
      "orientation_vector": [
        0.0,
        1.0
      ],
      "half_bracket_size": 0.49990016001536275,
      "bond": [
        1,
        22
      ],
      "fragment": "F2",
      "backbone": true,
      "suspended_anchor_atom": null,
      "suspended_reason": null,
      "source_label": "F2/fragments[1]",
      "marker_id": "5",
      "side": "right",
      "connection_group": "$a",
      "marker_type_index": 2
    },
    {
      "id": 4,
      "bracket_kind": "backbone",
      "pairing_id": "F2/connected",
      "group_id": "$overall",
      "ru_midpoint": [
        9.66509702372663,
        0.4977661559636461
      ],
      "bond_midpoint": [
        7.067059533636609,
        0.4977472776131595
      ],
      "orientation_vector": [
        0.0,
        1.0
      ],
      "half_bracket_size": 1.9997688137103973,
      "bond": [
        13,
        17
      ],
      "fragment": "F2",
      "backbone": true,
      "suspended_anchor_atom": null,
      "suspended_reason": null,
      "source_label": "F2/connected",
      "marker_id": "connected-overall-left",
      "side": "left",
      "connection_group": "$overall",
      "marker_type_index": null
    },
    {
      "id": 5,
      "bracket_kind": "backbone",
      "pairing_id": "F2/connected",
      "group_id": "$overall",
      "ru_midpoint": [
        9.66509702372663,
        0.4977661559636461
      ],
      "bond_midpoint": [
        12.263184704492641,
        0.49776607597965883
      ],
      "orientation_vector": [
        0.0,
        1.0
      ],
      "half_bracket_size": 1.9997688137103973,
      "bond": [
        1,
        22
      ],
      "fragment": "F2",
      "backbone": true,
      "suspended_anchor_atom": null,
      "suspended_reason": null,
      "source_label": "F2/connected",
      "marker_id": "connected-overall-right",
      "side": "right",
      "connection_group": "$overall",
      "marker_type_index": null
    },
    {
      "id": 6,
      "bracket_kind": "backbone",
      "pairing_id": "F1/fragments[0]",
      "group_id": "$a:2",
      "ru_midpoint": [
        1.1601541394449666,
        0.4477572616116233
      ],
      "bond_midpoint": [
        -0.1388792576717388,
        0.4977284792466604
      ],
      "orientation_vector": [
        0.0,
        -1.0
      ],
      "half_bracket_size": 0.4999001600153621,
      "bond": [
        0,
        2
      ],
      "fragment": "F1",
      "backbone": true,
      "suspended_anchor_atom": null,
      "suspended_reason": null,
      "source_label": "F1/fragments[0]",
      "marker_id": "0",
      "side": "left",
      "connection_group": "$a",
      "marker_type_index": 2
    },
    {
      "id": 7,
      "bracket_kind": "backbone",
      "pairing_id": "F1/fragments[0]",
      "group_id": "$a:2",
      "ru_midpoint": [
        1.1601541394449666,
        0.4477572616116233
      ],
      "bond_midpoint": [
        3.32516936620635,
        0.4977284792466603
      ],
      "orientation_vector": [
        0.0,
        -1.0
      ],
      "half_bracket_size": 0.4999001600153621,
      "bond": [
        6,
        7
      ],
      "fragment": "F1",
      "backbone": true,
      "suspended_anchor_atom": null,
      "suspended_reason": null,
      "source_label": "F1/fragments[0]",
      "marker_id": "6",
      "side": "right",
      "connection_group": "$a",
      "marker_type_index": 2
    },
    {
      "id": 8,
      "bracket_kind": "backbone",
      "pairing_id": "F1/fragments[1]",
      "group_id": "$a:2",
      "ru_midpoint": [
        4.191208988932507,
        0.49772847924666036
      ],
      "bond_midpoint": [
        3.32516936620635,
        0.4977284792466603
      ],
      "orientation_vector": [
        0.0,
        1.0
      ],
      "half_bracket_size": 0.4999001600153621,
      "bond": [
        6,
        7
      ],
      "fragment": "F1",
      "backbone": true,
      "suspended_anchor_atom": null,
      "suspended_reason": null,
      "source_label": "F1/fragments[1]",
      "marker_id": "0",
      "side": "left",
      "connection_group": "$a",
      "marker_type_index": 2
    },
    {
      "id": 9,
      "bracket_kind": "backbone",
      "pairing_id": "F1/fragments[1]",
      "group_id": "$a:2",
      "ru_midpoint": [
        4.191208988932507,
        0.49772847924666036
      ],
      "bond_midpoint": [
        5.1961157991586635,
        0.4977284792466604
      ],
      "orientation_vector": [
        0.0,
        1.0
      ],
      "half_bracket_size": 0.4999001600153621,
      "bond": [
        8,
        12
      ],
      "fragment": "F1",
      "backbone": true,
      "suspended_anchor_atom": null,
      "suspended_reason": null,
      "source_label": "F1/fragments[1]",
      "marker_id": "6",
      "side": "right",
      "connection_group": "$a",
      "marker_type_index": 2
    },
    {
      "id": 10,
      "bracket_kind": "backbone",
      "pairing_id": "F1/fragments[2]",
      "group_id": "$a:2",
      "ru_midpoint": [
        6.634067407424058,
        0.5810451725825541
      ],
      "bond_midpoint": [
        5.1961157991586635,
        0.4977284792466604
      ],
      "orientation_vector": [
        0.0,
        1.0
      ],
      "half_bracket_size": 0.4999001600153621,
      "bond": [
        8,
        12
      ],
      "fragment": "F1",
      "backbone": true,
      "suspended_anchor_atom": null,
      "suspended_reason": null,
      "source_label": "F1/fragments[2]",
      "marker_id": "0",
      "side": "left",
      "connection_group": "$a",
      "marker_type_index": 2
    },
    {
      "id": 11,
      "bracket_kind": "backbone",
      "pairing_id": "F1/fragments[2]",
      "group_id": "$a:2",
      "ru_midpoint": [
        6.634067407424058,
        0.5810451725825541
      ],
      "bond_midpoint": [
        7.067059533636609,
        0.4977472776131595
      ],
      "orientation_vector": [
        0.0,
        1.0
      ],
      "half_bracket_size": 0.4999001600153621,
      "bond": [
        13,
        17
      ],
      "fragment": "F1",
      "backbone": true,
      "suspended_anchor_atom": null,
      "suspended_reason": null,
      "source_label": "F1/fragments[2]",
      "marker_id": "6",
      "side": "right",
      "connection_group": "$a",
      "marker_type_index": 2
    },
    {
      "id": 12,
      "bracket_kind": "backbone",
      "pairing_id": "F1/connected",
      "group_id": "$overall",
      "ru_midpoint": [
        3.4085533341960144,
        0.4977472776131596
      ],
      "bond_midpoint": [
        -0.1388792576717388,
        0.4977284792466604
      ],
      "orientation_vector": [
        0.0,
        -1.0
      ],
      "half_bracket_size": 2.9999227350143496,
      "bond": [
        0,
        2
      ],
      "fragment": "F1",
      "backbone": true,
      "suspended_anchor_atom": null,
      "suspended_reason": null,
      "source_label": "F1/connected",
      "marker_id": "connected-overall-left",
      "side": "left",
      "connection_group": "$overall",
      "marker_type_index": null
    },
    {
      "id": 13,
      "bracket_kind": "backbone",
      "pairing_id": "F1/connected",
      "group_id": "$overall",
      "ru_midpoint": [
        3.4085533341960144,
        0.4977472776131596
      ],
      "bond_midpoint": [
        7.067059533636609,
        0.4977472776131595
      ],
      "orientation_vector": [
        0.0,
        -1.0
      ],
      "half_bracket_size": 2.9999227350143496,
      "bond": [
        13,
        17
      ],
      "fragment": "F1",
      "backbone": true,
      "suspended_anchor_atom": null,
      "suspended_reason": null,
      "source_label": "F1/connected",
      "marker_id": "connected-overall-right",
      "side": "right",
      "connection_group": "$overall",
      "marker_type_index": null
    }
  ]
}
