
     RDKit          2D

  0  0  0  0  0  0  0  0  0  0999 V3000
M  V30 BEGIN CTAB
M  V30 COUNTS 30 30 6 0 0
M  V30 BEGIN ATOM
M  V30 1 H -0.571723 -0.252518 0.000000 0
M  V30 2 H 12.696137 0.247498 0.000000 0
M  V30 3 C 0.294236 0.247489 0.000000 0
M  V30 4 C 1.160195 -0.252518 0.000000 0
M  V30 5 C 1.160195 -1.252520 0.000000 0
M  V30 6 C 0.293993 -1.752454 0.000000 0
M  V30 7 C 0.294193 -2.752455 0.000000 0
M  V30 8 C 1.159995 -3.252525 0.000000 0
M  V30 9 C 2.026197 -2.752591 0.000000 0
M  V30 10 C 2.025997 -1.752590 0.000000 0
M  V30 11 C 2.026211 0.247498 0.000000 0
M  V30 12 C 2.892141 -0.252518 0.000000 0
M  V30 13 C 3.758157 0.247498 0.000000 0
M  V30 14 C 3.758157 1.247522 0.000000 0
M  V30 15 C 4.624210 -0.252518 0.000000 0
M  V30 16 C 5.490226 0.247498 0.000000 0
M  V30 17 C 6.356231 -0.252403 0.000000 0
M  V30 18 C 7.222227 0.247498 0.000000 0
M  V30 19 C 7.222227 1.247498 0.000000 0
M  V30 20 C 8.088231 -0.252403 0.000000 0
M  V30 21 C 8.954314 0.247498 0.000000 0
M  V30 22 C 9.820311 -0.252403 0.000000 0
M  V30 23 C 9.820311 -1.252334 0.000000 0
M  V30 24 C 8.954424 -1.752425 0.000000 0
M  V30 25 C 10.686370 -1.752276 0.000000 0
M  V30 26 C 10.964128 0.247498 0.000000 0
M  V30 27 C 11.830132 -0.252403 0.000000 0
M  V30 28 C 11.830132 0.747522 0.000000 0
M  V30 29 C 11.830132 -1.252327 0.000000 0
M  V30 30 C 10.964240 -1.752421 0.000000 0
M  V30 END ATOM
M  V30 BEGIN BOND
M  V30 1 1 3 4
M  V30 2 1 4 5
M  V30 3 2 5 6
M  V30 4 1 6 7
M  V30 5 2 7 8
M  V30 6 1 8 9
M  V30 7 2 9 10
M  V30 8 1 10 5
M  V30 9 1 1 3
M  V30 10 1 11 12
M  V30 11 2 12 13
M  V30 12 1 13 14
M  V30 13 1 13 15
M  V30 14 1 16 17
M  V30 15 2 17 18
M  V30 16 1 18 19
M  V30 17 1 18 20
M  V30 18 1 15 16
M  V30 19 1 21 22
M  V30 20 1 22 23
M  V30 21 1 23 24
M  V30 22 2 23 25
M  V30 23 1 20 21
M  V30 24 1 26 27
M  V30 25 1 27 28
M  V30 26 1 27 29
M  V30 27 2 29 30
M  V30 28 1 22 26
M  V30 29 1 4 11
M  V30 30 1 2 27
M  V30 END BOND
M  V30 BEGIN SGROUP
M  V30 1 SRU 0 ATOMS=(4 4 11 15 16) CBONDS=(2 18 29) -
M  V30 BRKXYZ=(9 1.5932 -0.5025 0 1.5932 0.4975 0 0 0 0) BRKXYZ=(9 5.0572 -0.5-
M  V30 025 0 5.0572 0.4975 0 0 0 0)
M  V30 2 SRU 0 ATOMS=(4 15 16 20 21) CBONDS=(2 18 23) -
M  V30 BRKXYZ=(9 5.0572 -0.5025 0 5.0572 0.4975 0 0 0 0) BRKXYZ=(9 8.5213 -0.5-
M  V30 025 0 8.5213 0.4976 0 0 0 0)
M  V30 3 SRU 0 ATOMS=(4 20 21 22 26) CBONDS=(2 23 28) -
M  V30 BRKXYZ=(9 8.5213 0.4976 0 8.5213 -0.5025 0 0 0 0) BRKXYZ=(9 10.3922 0.4-
M  V30 976 0 10.3922 -0.5025 0 0 0 0)
M  V30 4 SRU 0 ATOMS=(4 2 22 26 27) CBONDS=(2 28 30) -
M  V30 BRKXYZ=(9 10.3922 0.4976 0 10.3922 -0.5025 0 0 0 0) BRKXYZ=(9 12.2631 0-
M  V30 .4976 0 12.2631 -0.5025 0 0 0 0)
M  V30 5 SRU 0 ATOMS=(4 2 4 11 27) CBONDS=(2 29 30) -
M  V30 BRKXYZ=(9 1.5932 -1.5026 0 1.5932 1.4975 0 0 0 0) BRKXYZ=(9 12.2631 -1.-
M  V30 5025 0 12.2631 1.4976 0 0 0 0)
M  V30 6 SRU 0 ATOMS=(4 1 3 4 11) CBONDS=(2 9 29) -
M  V30 BRKXYZ=(9 -0.1387 0.4975 0 -0.1387 -0.5025 0 0 0 0) BRKXYZ=(9 1.5932 0.-
M  V30 4975 0 1.5932 -0.5025 0 0 0 0)
M  V30 END SGROUP
M  V30 END CTAB
M  END
>  <BIGSMILES_BRACKET_RECORDS_JSON>
{
  "records": [
    {
      "id": 0,
      "bracket_kind": "backbone",
      "pairing_id": "F2/fragments[0]",
      "group_id": "$a:2",
      "ru_midpoint": [
        2.8921827930922763,
        -0.052511975643661696
      ],
      "bond_midpoint": [
        1.5932031354079799,
        -0.0025102958568661293
      ],
      "orientation_vector": [
        0.0,
        -1.0
      ],
      "half_bracket_size": 0.5000159978427487,
      "bond": [
        3,
        10
      ],
      "fragment": "F2",
      "backbone": true,
      "suspended_anchor_atom": null,
      "suspended_reason": null,
      "source_label": "F2/fragments[0]",
      "marker_id": "0",
      "side": "left",
      "connection_group": "$a",
      "marker_type_index": 2
    },
    {
      "id": 1,
      "bracket_kind": "backbone",
      "pairing_id": "F2/fragments[0]",
      "group_id": "$a:2",
      "ru_midpoint": [
        2.8921827930922763,
        -0.052511975643661696
      ],
      "bond_midpoint": [
        5.057218331284482,
        -0.0025103758593870706
      ],
      "orientation_vector": [
        0.0,
        -1.0
      ],
      "half_bracket_size": 0.5000159978427487,
      "bond": [
        14,
        15
      ],
      "fragment": "F2",
      "backbone": true,
      "suspended_anchor_atom": null,
      "suspended_reason": null,
      "source_label": "F2/fragments[0]",
      "marker_id": "6",
      "side": "right",
      "connection_group": "$a",
      "marker_type_index": 2
    },
    {
      "id": 2,
      "bracket_kind": "backbone",
      "pairing_id": "F2/fragments[1]",
      "group_id": "$a:2",
      "ru_midpoint": [
        6.7892288773691805,
        -0.0024524569456939316
      ],
      "bond_midpoint": [
        5.057218331284482,
        -0.0025103758593870706
      ],
      "orientation_vector": [
        0.0,
        -1.0
      ],
      "half_bracket_size": 0.5000159978427487,
      "bond": [
        14,
        15
      ],
      "fragment": "F2",
      "backbone": true,
      "suspended_anchor_atom": null,
      "suspended_reason": null,
      "source_label": "F2/fragments[1]",
      "marker_id": "0",
      "side": "left",
      "connection_group": "$a",
      "marker_type_index": 2
    },
    {
      "id": 3,
      "bracket_kind": "backbone",
      "pairing_id": "F2/fragments[1]",
      "group_id": "$a:2",
      "ru_midpoint": [
        6.7892288773691805,
        -0.0024524569456939316
      ],
      "bond_midpoint": [
        8.52127285921636,
        -0.0024524569456940704
      ],
      "orientation_vector": [
        0.0,
        -1.0
      ],
      "half_bracket_size": 0.5000159978427487,
      "bond": [
        19,
        20
      ],
      "fragment": "F2",
      "backbone": true,
      "suspended_anchor_atom": null,
      "suspended_reason": null,
      "source_label": "F2/fragments[1]",
      "marker_id": "6",
      "side": "right",
      "connection_group": "$a",
      "marker_type_index": 2
    },
    {
      "id": 4,
      "bracket_kind": "backbone",
      "pairing_id": "F2/fragments[2]",
      "group_id": "$a:2",
      "ru_midpoint": [
        9.387312481942516,
        -0.0024524569456939316
      ],
      "bond_midpoint": [
        8.52127285921636,
        -0.0024524569456940704
      ],
      "orientation_vector": [
        0.0,
        1.0
      ],
      "half_bracket_size": 0.5000159978427487,
      "bond": [
        19,
        20
      ],
      "fragment": "F2",
      "backbone": true,
      "suspended_anchor_atom": null,
      "suspended_reason": null,
      "source_label": "F2/fragments[2]",
      "marker_id": "0",
      "side": "left",
      "connection_group": "$a",
      "marker_type_index": 2
    },
    {
      "id": 5,
      "bracket_kind": "backbone",
      "pairing_id": "F2/fragments[2]",
      "group_id": "$a:2",
      "ru_midpoint": [
        9.387312481942516,
        -0.0024524569456939316
      ],
      "bond_midpoint": [
        10.392219292168674,
        -0.0024524569456939593
      ],
      "orientation_vector": [
        0.0,
        1.0
      ],
      "half_bracket_size": 0.5000159978427487,
      "bond": [
        21,
        25
      ],
      "fragment": "F2",
      "backbone": true,
      "suspended_anchor_atom": null,
      "suspended_reason": null,
      "source_label": "F2/fragments[2]",
      "marker_id": "6",
      "side": "right",
      "connection_group": "$a",
      "marker_type_index": 2
    },
    {
      "id": 6,
      "bracket_kind": "backbone",
      "pairing_id": "F2/fragments[3]",
      "group_id": "$a:2",
      "ru_midpoint": [
        11.83012694428732,
        0.08087223440885652
      ],
      "bond_midpoint": [
        10.392219292168674,
        -0.0024524569456939593
      ],
      "orientation_vector": [
        0.0,
        1.0
      ],
      "half_bracket_size": 0.5000159978427487,
      "bond": [
        21,
        25
      ],
      "fragment": "F2",
      "backbone": true,
      "suspended_anchor_atom": null,
      "suspended_reason": null,
      "source_label": "F2/fragments[3]",
      "marker_id": "0",
      "side": "left",
      "connection_group": "$a",
      "marker_type_index": 2
    },
    {
      "id": 7,
      "bracket_kind": "backbone",
      "pairing_id": "F2/fragments[3]",
      "group_id": "$a:2",
      "ru_midpoint": [
        11.83012694428732,
        0.08087223440885652
      ],
      "bond_midpoint": [
        12.263134537726996,
        -0.0024524569456939593
      ],
      "orientation_vector": [
        0.0,
        1.0
      ],
      "half_bracket_size": 0.5000159978427487,
      "bond": [
        1,
        26
      ],
      "fragment": "F2",
      "backbone": true,
      "suspended_anchor_atom": null,
      "suspended_reason": null,
      "source_label": "F2/fragments[3]",
      "marker_id": "6",
      "side": "right",
      "connection_group": "$a",
      "marker_type_index": 2
    },
    {
      "id": 8,
      "bracket_kind": "backbone",
      "pairing_id": "F2/connected",
      "group_id": "$overall",
      "ru_midpoint": [
        6.848739411005061,
        -0.0024692813186196483
      ],
      "bond_midpoint": [
        1.5932031354079799,
        -0.0025102958568661293
      ],
      "orientation_vector": [
        0.0,
        -1.0
      ],
      "half_bracket_size": 1.5000406575386986,
      "bond": [
        3,
        10
      ],
      "fragment": "F2",
      "backbone": true,
      "suspended_anchor_atom": null,
      "suspended_reason": null,
      "source_label": "F2/connected",
      "marker_id": "connected-overall-left",
      "side": "left",
      "connection_group": "$overall",
      "marker_type_index": null
    },
    {
      "id": 9,
      "bracket_kind": "backbone",
      "pairing_id": "F2/connected",
      "group_id": "$overall",
      "ru_midpoint": [
        6.848739411005061,
        -0.0024692813186196483
      ],
      "bond_midpoint": [
        12.263134537726996,
        -0.0024524569456939593
      ],
      "orientation_vector": [
        0.0,
        -1.0
      ],
      "half_bracket_size": 1.5000406575386986,
      "bond": [
        1,
        26
      ],
      "fragment": "F2",
      "backbone": true,
      "suspended_anchor_atom": null,
      "suspended_reason": null,
      "source_label": "F2/connected",
      "marker_id": "connected-overall-right",
      "side": "right",
      "connection_group": "$overall",
      "marker_type_index": null
    },
    {
      "id": 10,
      "bracket_kind": "backbone",
      "pairing_id": "F1/fragments[0]",
      "group_id": "$a:2",
      "ru_midpoint": [
        0.7272213794666345,
        -0.002515185326662034
      ],
      "bond_midpoint": [
        -0.13874366013302675,
        -0.002514685321103438
      ],
      "orientation_vector": [
        0.0,
        1.0
      ],
      "half_bracket_size": 0.5000070589092322,
      "bond": [
        0,
        2
      ],
      "fragment": "F1",
      "backbone": true,
      "suspended_anchor_atom": null,
      "suspended_reason": null,
      "source_label": "F1/fragments[0]",
      "marker_id": "0",
      "side": "left",
      "connection_group": "$a",
      "marker_type_index": 2
    },
    {
      "id": 11,
      "bracket_kind": "backbone",
      "pairing_id": "F1/fragments[0]",
      "group_id": "$a:2",
      "ru_midpoint": [
        0.7272213794666345,
        -0.002515185326662034
      ],
      "bond_midpoint": [
        1.5932031354079799,
        -0.0025102958568661293
      ],
      "orientation_vector": [
        0.0,
        1.0
      ],
      "half_bracket_size": 0.5000070589092322,
      "bond": [
        3,
        10
      ],
      "fragment": "F1",
      "backbone": true,
      "suspended_anchor_atom": null,
      "suspended_reason": null,
      "source_label": "F1/fragments[0]",
      "marker_id": "9",
      "side": "right",
      "connection_group": "$a",
      "marker_type_index": 2
    }
  ]
}
