
     RDKit          2D

  0  0  0  0  0  0  0  0  0  0999 V3000
M  V30 BEGIN CTAB
M  V30 COUNTS 21 22 2 0 0
M  V30 BEGIN ATOM
M  V30 1 C 3.902988 -0.402655 0.000000 0
M  V30 2 C 4.768984 0.097445 0.000000 0
M  V30 3 C 5.634989 -0.402655 0.000000 0
M  V30 4 C 5.634989 -1.402655 0.000000 0
M  V30 5 H 10.472955 0.097393 0.000000 0
M  V30 6 C 6.501011 0.097351 0.000000 0
M  V30 7 C 7.366970 -0.402656 0.000000 0
M  V30 8 C 7.366970 -1.402658 0.000000 0
M  V30 9 C 6.500768 -1.902591 0.000000 0
M  V30 10 C 6.500968 -2.902593 0.000000 0
M  V30 11 C 7.366770 -3.402662 0.000000 0
M  V30 12 C 8.232972 -2.902729 0.000000 0
M  V30 13 C 8.232772 -1.902727 0.000000 0
M  V30 14 C 8.740999 0.097350 0.000000 0
M  V30 15 C 9.606959 -0.402657 0.000000 0
M  V30 16 C 9.606959 -1.402659 0.000000 0
M  V30 17 N 8.740757 -1.902592 0.000000 0
M  V30 18 C 8.740957 -2.902594 0.000000 0
M  V30 19 C 9.606759 -3.402663 0.000000 0
M  V30 20 C 10.472960 -2.902730 0.000000 0
M  V30 21 C 10.472760 -1.902728 0.000000 0
M  V30 END ATOM
M  V30 BEGIN BOND
M  V30 1 1 1 2
M  V30 2 1 2 3
M  V30 3 1 3 4
M  V30 4 1 6 7
M  V30 5 1 7 8
M  V30 6 2 8 9
M  V30 7 1 9 10
M  V30 8 2 10 11
M  V30 9 1 11 12
M  V30 10 2 12 13
M  V30 11 1 13 8
M  V30 12 1 3 6
M  V30 13 1 14 15
M  V30 14 1 15 16
M  V30 15 2 16 17
M  V30 16 1 17 18
M  V30 17 2 18 19
M  V30 18 1 19 20
M  V30 19 2 20 21
M  V30 20 1 21 16
M  V30 21 1 7 14
M  V30 22 1 5 15
M  V30 END BOND
M  V30 BEGIN SGROUP
M  V30 1 SRU 0 ATOMS=(4 5 7 14 15) CBONDS=(2 21 22) -
M  V30 BRKXYZ=(9 8.0540 0.3474 0 8.0540 -0.6527 0 0 0 0) BRKXYZ=(9 10.0400 0.3-
M  V30 474 0 10.0400 -0.6526 0 0 0 0)
M  V30 2 SRU 0 ATOMS=(4 3 6 7 14) CBONDS=(2 12 21) -
M  V30 BRKXYZ=(9 6.0680 0.3474 0 6.0680 -0.6527 0 0 0 0) BRKXYZ=(9 8.0540 0.34-
M  V30 74 0 8.0540 -0.6527 0 0 0 0)
M  V30 END SGROUP
M  V30 END CTAB
M  END
>  <BIGSMILES_BRACKET_RECORDS_JSON>
{
  "records": [
    {
      "id": 0,
      "bracket_kind": "backbone",
      "pairing_id": "F2/fragments[0]",
      "group_id": "$a:2",
      "ru_midpoint": [
        9.173978945294019,
        -0.15265351431049257
      ],
      "bond_midpoint": [
        8.05398453097407,
        -0.15265301430493355
      ],
      "orientation_vector": [
        0.0,
        1.0
      ],
      "half_bracket_size": 0.5000070589092322,
      "bond": [
        6,
        13
      ],
      "fragment": "F2",
      "backbone": true,
      "suspended_anchor_atom": null,
      "suspended_reason": null,
      "source_label": "F2/fragments[0]",
      "marker_id": "0",
      "side": "left",
      "connection_group": "$a",
      "marker_type_index": 2
    },
    {
      "id": 1,
      "bracket_kind": "backbone",
      "pairing_id": "F2/fragments[0]",
      "group_id": "$a:2",
      "ru_midpoint": [
        9.173978945294019,
        -0.15265351431049257
      ],
      "bond_midpoint": [
        10.039956717160237,
        -0.1526319562180345
      ],
      "orientation_vector": [
        0.0,
        1.0
      ],
      "half_bracket_size": 0.5000070589092322,
      "bond": [
        4,
        14
      ],
      "fragment": "F2",
      "backbone": true,
      "suspended_anchor_atom": null,
      "suspended_reason": null,
      "source_label": "F2/fragments[0]",
      "marker_id": "9",
      "side": "right",
      "connection_group": "$a",
      "marker_type_index": 2
    },
    {
      "id": 2,
      "bracket_kind": "backbone",
      "pairing_id": "F1/fragments[0]",
      "group_id": "$a:2",
      "ru_midpoint": [
        6.933990116654119,
        -0.15265251429937454
      ],
      "bond_midpoint": [
        6.067999608584169,
        -0.15265201429381547
      ],
      "orientation_vector": [
        0.0,
        1.0
      ],
      "half_bracket_size": 0.5000070589092322,
      "bond": [
        2,
        5
      ],
      "fragment": "F1",
      "backbone": true,
      "suspended_anchor_atom": null,
      "suspended_reason": null,
      "source_label": "F1/fragments[0]",
      "marker_id": "0",
      "side": "left",
      "connection_group": "$a",
      "marker_type_index": 2
    },
    {
      "id": 3,
      "bracket_kind": "backbone",
      "pairing_id": "F1/fragments[0]",
      "group_id": "$a:2",
      "ru_midpoint": [
        6.933990116654119,
        -0.15265251429937454
      ],
      "bond_midpoint": [
        8.05398453097407,
        -0.15265301430493355
      ],
      "orientation_vector": [
        0.0,
        1.0
      ],
      "half_bracket_size": 0.5000070589092322,
      "bond": [
        6,
        13
      ],
      "fragment": "F1",
      "backbone": true,
      "suspended_anchor_atom": null,
      "suspended_reason": null,
      "source_label": "F1/fragments[0]",
      "marker_id": "9",
      "side": "right",
      "connection_group": "$a",
      "marker_type_index": 2
    }
  ]
}
