
     RDKit          2D

  0  0  0  0  0  0  0  0  0  0999 V3000
M  V30 BEGIN CTAB
M  V30 COUNTS 14 14 2 0 0
M  V30 BEGIN ATOM
M  V30 1 H 3.758331 -0.252441 0.000000 0
M  V30 2 H 8.366054 0.247497 0.000000 0
M  V30 3 C 4.624290 0.247566 0.000000 0
M  V30 4 C 5.490249 -0.252441 0.000000 0
M  V30 5 C 5.490249 -1.252443 0.000000 0
M  V30 6 C 4.624047 -1.752377 0.000000 0
M  V30 7 C 4.624247 -2.752378 0.000000 0
M  V30 8 C 5.490049 -3.252448 0.000000 0
M  V30 9 C 6.356251 -2.752514 0.000000 0
M  V30 10 C 6.356051 -1.752513 0.000000 0
M  V30 11 C 6.634045 0.247497 0.000000 0
M  V30 12 C 7.500049 -0.252404 0.000000 0
M  V30 13 C 7.500049 -1.252428 0.000000 0
M  V30 14 C 6.633897 -1.752272 0.000000 0
M  V30 END ATOM
M  V30 BEGIN BOND
M  V30 1 1 3 4
M  V30 2 1 4 5
M  V30 3 2 5 6
M  V30 4 1 6 7
M  V30 5 2 7 8
M  V30 6 1 8 9
M  V30 7 2 9 10
M  V30 8 1 10 5
M  V30 9 1 1 3
M  V30 10 1 11 12
M  V30 11 1 12 13
M  V30 12 2 13 14
M  V30 13 1 4 11
M  V30 14 1 2 12
M  V30 END BOND
M  V30 BEGIN SGROUP
M  V30 1 SRU 0 ATOMS=(4 2 4 11 12) CBONDS=(2 13 14) -
M  V30 BRKXYZ=(9 6.0621 0.4974 0 6.0621 -0.5024 0 0 0 0) BRKXYZ=(9 7.9331 0.49-
M  V30 74 0 7.9331 -0.5024 0 0 0 0)
M  V30 2 SRU 0 ATOMS=(4 1 3 4 11) CBONDS=(2 9 13) -
M  V30 BRKXYZ=(9 4.1913 0.4976 0 4.1913 -0.5024 0 0 0 0) BRKXYZ=(9 6.0621 0.49-
M  V30 75 0 6.0621 -0.5025 0 0 0 0)
M  V30 END SGROUP
M  V30 END CTAB
M  END
>  <BIGSMILES_BRACKET_RECORDS_JSON>
{
  "records": [
    {
      "id": 0,
      "bracket_kind": "backbone",
      "pairing_id": "F2/fragments[0]",
      "group_id": "$a:2",
      "ru_midpoint": [
        7.067007737033763,
        -0.002453434326505355
      ],
      "bond_midpoint": [
        6.062147087475861,
        -0.0024723126769919668
      ],
      "orientation_vector": [
        0.0,
        1.0
      ],
      "half_bracket_size": 0.49990016001536214,
      "bond": [
        3,
        10
      ],
      "fragment": "F2",
      "backbone": true,
      "suspended_anchor_atom": null,
      "suspended_reason": null,
      "source_label": "F2/fragments[0]",
      "marker_id": "0",
      "side": "left",
      "connection_group": "$a",
      "marker_type_index": 2
    },
    {
      "id": 1,
      "bracket_kind": "backbone",
      "pairing_id": "F2/fragments[0]",
      "group_id": "$a:2",
      "ru_midpoint": [
        7.067007737033763,
        -0.002453434326505355
      ],
      "bond_midpoint": [
        7.933051482137532,
        -0.002453514310492788
      ],
      "orientation_vector": [
        0.0,
        1.0
      ],
      "half_bracket_size": 0.49990016001536214,
      "bond": [
        1,
        11
      ],
      "fragment": "F2",
      "backbone": true,
      "suspended_anchor_atom": null,
      "suspended_reason": null,
      "source_label": "F2/fragments[0]",
      "marker_id": "5",
      "side": "right",
      "connection_group": "$a",
      "marker_type_index": 2
    },
    {
      "id": 2,
      "bracket_kind": "backbone",
      "pairing_id": "F1/fragments[0]",
      "group_id": "$a:2",
      "ru_midpoint": [
        5.057301073830406,
        -0.0024381616021149077
      ],
      "bond_midpoint": [
        4.191310565760457,
        -0.002437661596556173
      ],
      "orientation_vector": [
        0.0,
        1.0
      ],
      "half_bracket_size": 0.5000070589092322,
      "bond": [
        0,
        2
      ],
      "fragment": "F1",
      "backbone": true,
      "suspended_anchor_atom": null,
      "suspended_reason": null,
      "source_label": "F1/fragments[0]",
      "marker_id": "0",
      "side": "left",
      "connection_group": "$a",
      "marker_type_index": 2
    },
    {
      "id": 3,
      "bracket_kind": "backbone",
      "pairing_id": "F1/fragments[0]",
      "group_id": "$a:2",
      "ru_midpoint": [
        5.057301073830406,
        -0.0024381616021149077
      ],
      "bond_midpoint": [
        6.062147087475861,
        -0.0024723126769919668
      ],
      "orientation_vector": [
        0.0,
        1.0
      ],
      "half_bracket_size": 0.5000070589092322,
      "bond": [
        3,
        10
      ],
      "fragment": "F1",
      "backbone": true,
      "suspended_anchor_atom": null,
      "suspended_reason": null,
      "source_label": "F1/fragments[0]",
      "marker_id": "9",
      "side": "right",
      "connection_group": "$a",
      "marker_type_index": 2
    }
  ]
}
