
     RDKit          2D

  0  0  0  0  0  0  0  0  0  0999 V3000
M  V30 BEGIN CTAB
M  V30 COUNTS 33 33 6 0 0
M  V30 BEGIN ATOM
M  V30 1 C 0.097314 0.133380 0.000000 0
M  V30 2 C 0.963310 0.633480 0.000000 0
M  V30 3 C 1.829315 0.133380 0.000000 0
M  V30 4 C 1.829315 -0.866621 0.000000 0
M  V30 5 H 15.097237 0.633394 0.000000 0
M  V30 6 C 2.695336 0.633386 0.000000 0
M  V30 7 C 3.561296 0.133379 0.000000 0
M  V30 8 C 3.561296 -0.866623 0.000000 0
M  V30 9 C 2.695094 -1.366557 0.000000 0
M  V30 10 C 2.695294 -2.366558 0.000000 0
M  V30 11 C 3.561096 -2.866628 0.000000 0
M  V30 12 C 4.427297 -2.366694 0.000000 0
M  V30 13 C 4.427097 -1.366693 0.000000 0
M  V30 14 C 4.427312 0.633394 0.000000 0
M  V30 15 C 5.293241 0.133378 0.000000 0
M  V30 16 C 6.159258 0.633394 0.000000 0
M  V30 17 C 6.159258 1.633419 0.000000 0
M  V30 18 C 7.025311 0.133378 0.000000 0
M  V30 19 C 7.891327 0.633394 0.000000 0
M  V30 20 C 8.757331 0.133494 0.000000 0
M  V30 21 C 9.623328 0.633394 0.000000 0
M  V30 22 C 9.623328 1.633395 0.000000 0
M  V30 23 C 10.489332 0.133494 0.000000 0
M  V30 24 C 11.355415 0.633394 0.000000 0
M  V30 25 C 12.221411 0.133494 0.000000 0
M  V30 26 C 12.221411 -0.866438 0.000000 0
M  V30 27 C 11.355525 -1.366528 0.000000 0
M  V30 28 C 13.087471 -1.366379 0.000000 0
M  V30 29 C 13.365229 0.633394 0.000000 0
M  V30 30 C 14.231233 0.133494 0.000000 0
M  V30 31 C 14.231233 1.133419 0.000000 0
M  V30 32 C 14.231233 -0.866431 0.000000 0
M  V30 33 C 13.365340 -1.366525 0.000000 0
M  V30 END ATOM
M  V30 BEGIN BOND
M  V30 1 1 1 2
M  V30 2 1 2 3
M  V30 3 1 3 4
M  V30 4 1 6 7
M  V30 5 1 7 8
M  V30 6 2 8 9
M  V30 7 1 9 10
M  V30 8 2 10 11
M  V30 9 1 11 12
M  V30 10 2 12 13
M  V30 11 1 13 8
M  V30 12 1 3 6
M  V30 13 1 14 15
M  V30 14 2 15 16
M  V30 15 1 16 17
M  V30 16 1 16 18
M  V30 17 1 19 20
M  V30 18 2 20 21
M  V30 19 1 21 22
M  V30 20 1 21 23
M  V30 21 1 18 19
M  V30 22 1 24 25
M  V30 23 1 25 26
M  V30 24 1 26 27
M  V30 25 2 26 28
M  V30 26 1 23 24
M  V30 27 1 29 30
M  V30 28 1 30 31
M  V30 29 1 30 32
M  V30 30 2 32 33
M  V30 31 1 25 29
M  V30 32 1 7 14
M  V30 33 1 5 30
M  V30 END BOND
M  V30 BEGIN SGROUP
M  V30 1 SRU 0 ATOMS=(4 7 14 18 19) CBONDS=(2 21 32) -
M  V30 BRKXYZ=(9 3.9943 -0.1166 0 3.9943 0.8834 0 0 0 0) BRKXYZ=(9 7.4583 -0.1-
M  V30 166 0 7.4583 0.8834 0 0 0 0)
M  V30 2 SRU 0 ATOMS=(4 18 19 23 24) CBONDS=(2 21 26) -
M  V30 BRKXYZ=(9 7.4583 -0.1166 0 7.4583 0.8834 0 0 0 0) BRKXYZ=(9 10.9224 -0.-
M  V30 1166 0 10.9224 0.8835 0 0 0 0)
M  V30 3 SRU 0 ATOMS=(4 23 24 25 29) CBONDS=(2 26 31) -
M  V30 BRKXYZ=(9 10.9224 0.8835 0 10.9224 -0.1166 0 0 0 0) BRKXYZ=(9 12.7933 0-
M  V30 .8835 0 12.7933 -0.1166 0 0 0 0)
M  V30 4 SRU 0 ATOMS=(4 5 25 29 30) CBONDS=(2 31 33) -
M  V30 BRKXYZ=(9 12.7933 0.8835 0 12.7933 -0.1166 0 0 0 0) BRKXYZ=(9 14.6642 0-
M  V30 .8835 0 14.6642 -0.1166 0 0 0 0)
M  V30 5 SRU 0 ATOMS=(4 5 7 14 30) CBONDS=(2 32 33) -
M  V30 BRKXYZ=(9 3.9943 -1.1167 0 3.9943 1.8834 0 0 0 0) BRKXYZ=(9 14.6642 -1.-
M  V30 1166 0 14.6642 1.8835 0 0 0 0)
M  V30 6 SRU 0 ATOMS=(4 3 6 7 14) CBONDS=(2 12 32) -
M  V30 BRKXYZ=(9 2.2623 0.8834 0 2.2623 -0.1166 0 0 0 0) BRKXYZ=(9 3.9943 0.88-
M  V30 34 0 3.9943 -0.1166 0 0 0 0)
M  V30 END SGROUP
M  V30 END CTAB
M  END
>  <BIGSMILES_BRACKET_RECORDS_JSON>
{
  "records": [
    {
      "id": 0,
      "bracket_kind": "backbone",
      "pairing_id": "F2/fragments[0]",
      "group_id": "$a:2",
      "ru_midpoint": [
        5.293283358912043,
        0.3333847820172723
      ],
      "bond_midpoint": [
        3.9943037012277465,
        0.3833864618040679
      ],
      "orientation_vector": [
        0.0,
        -1.0
      ],
      "half_bracket_size": 0.5000159978427487,
      "bond": [
        6,
        13
      ],
      "fragment": "F2",
      "backbone": true,
      "suspended_anchor_atom": null,
      "suspended_reason": null,
      "source_label": "F2/fragments[0]",
      "marker_id": "0",
      "side": "left",
      "connection_group": "$a",
      "marker_type_index": 2
    },
    {
      "id": 1,
      "bracket_kind": "backbone",
      "pairing_id": "F2/fragments[0]",
      "group_id": "$a:2",
      "ru_midpoint": [
        5.293283358912043,
        0.3333847820172723
      ],
      "bond_midpoint": [
        7.458318897104249,
        0.38338638180154694
      ],
      "orientation_vector": [
        0.0,
        -1.0
      ],
      "half_bracket_size": 0.5000159978427487,
      "bond": [
        17,
        18
      ],
      "fragment": "F2",
      "backbone": true,
      "suspended_anchor_atom": null,
      "suspended_reason": null,
      "source_label": "F2/fragments[0]",
      "marker_id": "6",
      "side": "right",
      "connection_group": "$a",
      "marker_type_index": 2
    },
    {
      "id": 2,
      "bracket_kind": "backbone",
      "pairing_id": "F2/fragments[1]",
      "group_id": "$a:2",
      "ru_midpoint": [
        9.190329443188947,
        0.38344430071524005
      ],
      "bond_midpoint": [
        7.458318897104249,
        0.38338638180154694
      ],
      "orientation_vector": [
        0.0,
        -1.0
      ],
      "half_bracket_size": 0.5000159978427487,
      "bond": [
        17,
        18
      ],
      "fragment": "F2",
      "backbone": true,
      "suspended_anchor_atom": null,
      "suspended_reason": null,
      "source_label": "F2/fragments[1]",
      "marker_id": "0",
      "side": "left",
      "connection_group": "$a",
      "marker_type_index": 2
    },
    {
      "id": 3,
      "bracket_kind": "backbone",
      "pairing_id": "F2/fragments[1]",
      "group_id": "$a:2",
      "ru_midpoint": [
        9.190329443188947,
        0.38344430071524005
      ],
      "bond_midpoint": [
        10.922373425036128,
        0.38344430071523994
      ],
      "orientation_vector": [
        0.0,
        -1.0
      ],
      "half_bracket_size": 0.5000159978427487,
      "bond": [
        22,
        23
      ],
      "fragment": "F2",
      "backbone": true,
      "suspended_anchor_atom": null,
      "suspended_reason": null,
      "source_label": "F2/fragments[1]",
      "marker_id": "6",
      "side": "right",
      "connection_group": "$a",
      "marker_type_index": 2
    },
    {
      "id": 4,
      "bracket_kind": "backbone",
      "pairing_id": "F2/fragments[2]",
      "group_id": "$a:2",
      "ru_midpoint": [
        11.788413047762281,
        0.38344430071524005
      ],
      "bond_midpoint": [
        10.922373425036128,
        0.38344430071523994
      ],
      "orientation_vector": [
        0.0,
        1.0
      ],
      "half_bracket_size": 0.5000159978427487,
      "bond": [
        22,
        23
      ],
      "fragment": "F2",
      "backbone": true,
      "suspended_anchor_atom": null,
      "suspended_reason": null,
      "source_label": "F2/fragments[2]",
      "marker_id": "0",
      "side": "left",
      "connection_group": "$a",
      "marker_type_index": 2
    },
    {
      "id": 5,
      "bracket_kind": "backbone",
      "pairing_id": "F2/fragments[2]",
      "group_id": "$a:2",
      "ru_midpoint": [
        11.788413047762281,
        0.38344430071524005
      ],
      "bond_midpoint": [
        12.79331985798844,
        0.38344430071524005
      ],
      "orientation_vector": [
        0.0,
        1.0
      ],
      "half_bracket_size": 0.5000159978427487,
      "bond": [
        24,
        28
      ],
      "fragment": "F2",
      "backbone": true,
      "suspended_anchor_atom": null,
      "suspended_reason": null,
      "source_label": "F2/fragments[2]",
      "marker_id": "6",
      "side": "right",
      "connection_group": "$a",
      "marker_type_index": 2
    },
    {
      "id": 6,
      "bracket_kind": "backbone",
      "pairing_id": "F2/fragments[3]",
      "group_id": "$a:2",
      "ru_midpoint": [
        14.231227510107086,
        0.4667689920697909
      ],
      "bond_midpoint": [
        12.79331985798844,
        0.38344430071524005
      ],
      "orientation_vector": [
        0.0,
        1.0
      ],
      "half_bracket_size": 0.5000159978427487,
      "bond": [
        24,
        28
      ],
      "fragment": "F2",
      "backbone": true,
      "suspended_anchor_atom": null,
      "suspended_reason": null,
      "source_label": "F2/fragments[3]",
      "marker_id": "0",
      "side": "left",
      "connection_group": "$a",
      "marker_type_index": 2
    },
    {
      "id": 7,
      "bracket_kind": "backbone",
      "pairing_id": "F2/fragments[3]",
      "group_id": "$a:2",
      "ru_midpoint": [
        14.231227510107086,
        0.4667689920697909
      ],
      "bond_midpoint": [
        14.664235103546762,
        0.38344430071524005
      ],
      "orientation_vector": [
        0.0,
        1.0
      ],
      "half_bracket_size": 0.5000159978427487,
      "bond": [
        4,
        29
      ],
      "fragment": "F2",
      "backbone": true,
      "suspended_anchor_atom": null,
      "suspended_reason": null,
      "source_label": "F2/fragments[3]",
      "marker_id": "6",
      "side": "right",
      "connection_group": "$a",
      "marker_type_index": 2
    },
    {
      "id": 8,
      "bracket_kind": "backbone",
      "pairing_id": "F2/connected",
      "group_id": "$overall",
      "ru_midpoint": [
        9.249839976824829,
        0.3834274763423147
      ],
      "bond_midpoint": [
        3.9943037012277465,
        0.3833864618040679
      ],
      "orientation_vector": [
        0.0,
        -1.0
      ],
      "half_bracket_size": 1.5000406575386986,
      "bond": [
        6,
        13
      ],
      "fragment": "F2",
      "backbone": true,
      "suspended_anchor_atom": null,
      "suspended_reason": null,
      "source_label": "F2/connected",
      "marker_id": "connected-overall-left",
      "side": "left",
      "connection_group": "$overall",
      "marker_type_index": null
    },
    {
      "id": 9,
      "bracket_kind": "backbone",
      "pairing_id": "F2/connected",
      "group_id": "$overall",
      "ru_midpoint": [
        9.249839976824829,
        0.3834274763423147
      ],
      "bond_midpoint": [
        14.664235103546762,
        0.38344430071524005
      ],
      "orientation_vector": [
        0.0,
        -1.0
      ],
      "half_bracket_size": 1.5000406575386986,
      "bond": [
        4,
        29
      ],
      "fragment": "F2",
      "backbone": true,
      "suspended_anchor_atom": null,
      "suspended_reason": null,
      "source_label": "F2/connected",
      "marker_id": "connected-overall-right",
      "side": "right",
      "connection_group": "$overall",
      "marker_type_index": null
    },
    {
      "id": 10,
      "bracket_kind": "backbone",
      "pairing_id": "F1/fragments[0]",
      "group_id": "$a:2",
      "ru_midpoint": [
        3.128290547706629,
        0.3833820723398309
      ],
      "bond_midpoint": [
        2.2623255081069686,
        0.38338257234538964
      ],
      "orientation_vector": [
        0.0,
        1.0
      ],
      "half_bracket_size": 0.5000070589092322,
      "bond": [
        2,
        5
      ],
      "fragment": "F1",
      "backbone": true,
      "suspended_anchor_atom": null,
      "suspended_reason": null,
      "source_label": "F1/fragments[0]",
      "marker_id": "0",
      "side": "left",
      "connection_group": "$a",
      "marker_type_index": 2
    },
    {
      "id": 11,
      "bracket_kind": "backbone",
      "pairing_id": "F1/fragments[0]",
      "group_id": "$a:2",
      "ru_midpoint": [
        3.128290547706629,
        0.3833820723398309
      ],
      "bond_midpoint": [
        3.9943037012277465,
        0.3833864618040679
      ],
      "orientation_vector": [
        0.0,
        1.0
      ],
      "half_bracket_size": 0.5000070589092322,
      "bond": [
        6,
        13
      ],
      "fragment": "F1",
      "backbone": true,
      "suspended_anchor_atom": null,
      "suspended_reason": null,
      "source_label": "F1/fragments[0]",
      "marker_id": "9",
      "side": "right",
      "connection_group": "$a",
      "marker_type_index": 2
    }
  ]
}
