
     RDKit          2D

  0  0  0  0  0  0  0  0  0  0999 V3000
M  V30 BEGIN CTAB
M  V30 COUNTS 21 22 2 0 0
M  V30 BEGIN ATOM
M  V30 1 C -3.602669 0.276145 0.000000 0
M  V30 2 C -2.736673 -0.223755 0.000000 0
M  V30 3 C -1.870669 0.276145 0.000000 0
M  V30 4 C -1.004557 -0.223755 0.000000 0
M  V30 5 H 3.603196 0.276250 0.000000 0
M  V30 6 C -0.138535 0.276251 0.000000 0
M  V30 7 C 0.727424 -0.223756 0.000000 0
M  V30 8 C 0.727424 -1.223758 0.000000 0
M  V30 9 C -0.138778 -1.723691 0.000000 0
M  V30 10 C -0.138578 -2.723693 0.000000 0
M  V30 11 C 0.727224 -3.223762 0.000000 0
M  V30 12 C 1.593426 -2.723829 0.000000 0
M  V30 13 C 1.593226 -1.723827 0.000000 0
M  V30 14 C 1.871278 0.276250 0.000000 0
M  V30 15 C 2.737237 -0.223757 0.000000 0
M  V30 16 C 2.737237 -1.223759 0.000000 0
M  V30 17 C 1.871035 -1.723692 0.000000 0
M  V30 18 C 1.871235 -2.723694 0.000000 0
M  V30 19 N 2.737037 -3.223763 0.000000 0
M  V30 20 C 3.603239 -2.723830 0.000000 0
M  V30 21 C 3.603039 -1.723828 0.000000 0
M  V30 END ATOM
M  V30 BEGIN BOND
M  V30 1 1 1 2
M  V30 2 1 2 3
M  V30 3 1 3 4
M  V30 4 1 6 7
M  V30 5 1 7 8
M  V30 6 2 8 9
M  V30 7 1 9 10
M  V30 8 2 10 11
M  V30 9 1 11 12
M  V30 10 2 12 13
M  V30 11 1 13 8
M  V30 12 1 4 6
M  V30 13 1 14 15
M  V30 14 1 15 16
M  V30 15 2 16 17
M  V30 16 1 17 18
M  V30 17 2 18 19
M  V30 18 1 19 20
M  V30 19 2 20 21
M  V30 20 1 21 16
M  V30 21 1 7 14
M  V30 22 1 5 15
M  V30 END BOND
M  V30 BEGIN SGROUP
M  V30 1 SRU 0 ATOMS=(4 5 7 14 15) CBONDS=(2 21 22) -
M  V30 BRKXYZ=(9 1.2994 0.5263 0 1.2994 -0.4738 0 0 0 0) BRKXYZ=(9 3.1702 0.52-
M  V30 63 0 3.1702 -0.4738 0 0 0 0)
M  V30 2 SRU 0 ATOMS=(4 4 6 7 14) CBONDS=(2 12 21) -
M  V30 BRKXYZ=(9 -0.5715 0.5263 0 -0.5715 -0.4738 0 0 0 0) BRKXYZ=(9 1.2994 0.-
M  V30 5263 0 1.2994 -0.4738 0 0 0 0)
M  V30 END SGROUP
M  V30 END CTAB
M  END
>  <BIGSMILES_BRACKET_RECORDS_JSON>
{
  "records": [
    {
      "id": 0,
      "bracket_kind": "backbone",
      "pairing_id": "F2/fragments[0]",
      "group_id": "$a:2",
      "ru_midpoint": [
        2.3042387768966286,
        0.026225087547073422
      ],
      "bond_midpoint": [
        1.2993509145777187,
        0.026247145645090286
      ],
      "orientation_vector": [
        0.0,
        1.0
      ],
      "half_bracket_size": 0.5000070589092322,
      "bond": [
        6,
        13
      ],
      "fragment": "F2",
      "backbone": true,
      "suspended_anchor_atom": null,
      "suspended_reason": null,
      "source_label": "F2/fragments[0]",
      "marker_id": "0",
      "side": "left",
      "connection_group": "$a",
      "marker_type_index": 2
    },
    {
      "id": 1,
      "bracket_kind": "backbone",
      "pairing_id": "F2/fragments[0]",
      "group_id": "$a:2",
      "ru_midpoint": [
        2.3042387768966286,
        0.026225087547073422
      ],
      "bond_midpoint": [
        3.1702165487628458,
        0.026246645639531385
      ],
      "orientation_vector": [
        0.0,
        1.0
      ],
      "half_bracket_size": 0.5000070589092322,
      "bond": [
        4,
        14
      ],
      "fragment": "F2",
      "backbone": true,
      "suspended_anchor_atom": null,
      "suspended_reason": null,
      "source_label": "F2/fragments[0]",
      "marker_id": "9",
      "side": "right",
      "connection_group": "$a",
      "marker_type_index": 2
    },
    {
      "id": 2,
      "bracket_kind": "backbone",
      "pairing_id": "F1/fragments[0]",
      "group_id": "$a:2",
      "ru_midpoint": [
        0.29444439088276897,
        0.026247645650649187
      ],
      "bond_midpoint": [
        -0.5715461171871807,
        0.026248145656208144
      ],
      "orientation_vector": [
        0.0,
        1.0
      ],
      "half_bracket_size": 0.5000070589092322,
      "bond": [
        3,
        5
      ],
      "fragment": "F1",
      "backbone": true,
      "suspended_anchor_atom": null,
      "suspended_reason": null,
      "source_label": "F1/fragments[0]",
      "marker_id": "0",
      "side": "left",
      "connection_group": "$a",
      "marker_type_index": 2
    },
    {
      "id": 3,
      "bracket_kind": "backbone",
      "pairing_id": "F1/fragments[0]",
      "group_id": "$a:2",
      "ru_midpoint": [
        0.29444439088276897,
        0.026247645650649187
      ],
      "bond_midpoint": [
        1.2993509145777187,
        0.026247145645090286
      ],
      "orientation_vector": [
        0.0,
        1.0
      ],
      "half_bracket_size": 0.5000070589092322,
      "bond": [
        6,
        13
      ],
      "fragment": "F1",
      "backbone": true,
      "suspended_anchor_atom": null,
      "suspended_reason": null,
      "source_label": "F1/fragments[0]",
      "marker_id": "9",
      "side": "right",
      "connection_group": "$a",
      "marker_type_index": 2
    }
  ]
}
