
     RDKit          2D

  0  0  0  0  0  0  0  0  0  0999 V3000
M  V30 BEGIN CTAB
M  V30 COUNTS 19 19 2 0 0
M  V30 BEGIN ATOM
M  V30 1 H 3.619323 -0.252438 0.000000 0
M  V30 2 H 8.505059 0.247497 0.000000 0
M  V30 3 C 4.485283 0.247569 0.000000 0
M  V30 4 C 5.351242 -0.252438 0.000000 0
M  V30 5 C 5.351242 -1.252440 0.000000 0
M  V30 6 C 4.485040 -1.752373 0.000000 0
M  V30 7 C 4.485240 -2.752375 0.000000 0
M  V30 8 C 5.351042 -3.252444 0.000000 0
M  V30 9 C 6.217244 -2.752511 0.000000 0
M  V30 10 C 6.217044 -1.752509 0.000000 0
M  V30 11 C 6.773067 0.247497 0.000000 0
M  V30 12 C 7.639063 -0.252404 0.000000 0
M  V30 13 C 7.639063 -1.252335 0.000000 0
M  V30 14 O 8.505122 -1.752277 0.000000 0
M  V30 15 O 6.773177 -1.752426 0.000000 0
M  V30 16 C 6.773177 -2.752358 0.000000 0
M  V30 17 C 7.773209 -2.752185 0.000000 0
M  V30 18 C 7.273267 -3.618244 0.000000 0
M  V30 19 C 5.907117 -3.252348 0.000000 0
M  V30 END ATOM
M  V30 BEGIN BOND
M  V30 1 1 3 4
M  V30 2 1 4 5
M  V30 3 2 5 6
M  V30 4 1 6 7
M  V30 5 2 7 8
M  V30 6 1 8 9
M  V30 7 2 9 10
M  V30 8 1 10 5
M  V30 9 1 1 3
M  V30 10 1 11 12
M  V30 11 1 12 13
M  V30 12 2 13 14
M  V30 13 1 13 15
M  V30 14 1 15 16
M  V30 15 1 16 17
M  V30 16 1 16 18
M  V30 17 1 16 19
M  V30 18 1 4 11
M  V30 19 1 2 12
M  V30 END BOND
M  V30 BEGIN SGROUP
M  V30 1 SRU 0 ATOMS=(4 2 4 11 12) CBONDS=(2 18 19) -
M  V30 BRKXYZ=(9 6.0622 0.4974 0 6.0622 -0.5024 0 0 0 0) BRKXYZ=(9 8.0721 0.49-
M  V30 74 0 8.0721 -0.5024 0 0 0 0)
M  V30 2 SRU 0 ATOMS=(4 1 3 4 11) CBONDS=(2 9 18) -
M  V30 BRKXYZ=(9 4.0523 0.4976 0 4.0523 -0.5024 0 0 0 0) BRKXYZ=(9 6.0622 0.49-
M  V30 75 0 6.0622 -0.5025 0 0 0 0)
M  V30 END SGROUP
M  V30 END CTAB
M  END
>  <BIGSMILES_BRACKET_RECORDS_JSON>
{
  "records": [
    {
      "id": 0,
      "bracket_kind": "backbone",
      "pairing_id": "F2/fragments[0]",
      "group_id": "$a:2",
      "ru_midpoint": [
        7.206021408908764,
        -0.0024534343265056324
      ],
      "bond_midpoint": [
        6.062154221033225,
        -0.002470547649941951
      ],
      "orientation_vector": [
        0.0,
        1.0
      ],
      "half_bracket_size": 0.4999001600153622,
      "bond": [
        3,
        10
      ],
      "fragment": "F2",
      "backbone": true,
      "suspended_anchor_atom": null,
      "suspended_reason": null,
      "source_label": "F2/fragments[0]",
      "marker_id": "0",
      "side": "left",
      "connection_group": "$a",
      "marker_type_index": 2
    },
    {
      "id": 1,
      "bracket_kind": "backbone",
      "pairing_id": "F2/fragments[0]",
      "group_id": "$a:2",
      "ru_midpoint": [
        7.206021408908764,
        -0.0024534343265056324
      ],
      "bond_midpoint": [
        8.072061077801393,
        -0.0024535143104929824
      ],
      "orientation_vector": [
        0.0,
        1.0
      ],
      "half_bracket_size": 0.4999001600153622,
      "bond": [
        1,
        11
      ],
      "fragment": "F2",
      "backbone": true,
      "suspended_anchor_atom": null,
      "suspended_reason": null,
      "source_label": "F2/fragments[0]",
      "marker_id": "10",
      "side": "right",
      "connection_group": "$a",
      "marker_type_index": 2
    },
    {
      "id": 2,
      "bracket_kind": "backbone",
      "pairing_id": "F1/fragments[0]",
      "group_id": "$a:2",
      "ru_midpoint": [
        4.918293516647855,
        -0.002434631548014765
      ],
      "bond_midpoint": [
        4.052303008577905,
        -0.0024341315424560306
      ],
      "orientation_vector": [
        0.0,
        1.0
      ],
      "half_bracket_size": 0.5000070589092322,
      "bond": [
        0,
        2
      ],
      "fragment": "F1",
      "backbone": true,
      "suspended_anchor_atom": null,
      "suspended_reason": null,
      "source_label": "F1/fragments[0]",
      "marker_id": "0",
      "side": "left",
      "connection_group": "$a",
      "marker_type_index": 2
    },
    {
      "id": 3,
      "bracket_kind": "backbone",
      "pairing_id": "F1/fragments[0]",
      "group_id": "$a:2",
      "ru_midpoint": [
        4.918293516647855,
        -0.002434631548014765
      ],
      "bond_midpoint": [
        6.062154221033225,
        -0.002470547649941951
      ],
      "orientation_vector": [
        0.0,
        1.0
      ],
      "half_bracket_size": 0.5000070589092322,
      "bond": [
        3,
        10
      ],
      "fragment": "F1",
      "backbone": true,
      "suspended_anchor_atom": null,
      "suspended_reason": null,
      "source_label": "F1/fragments[0]",
      "marker_id": "9",
      "side": "right",
      "connection_group": "$a",
      "marker_type_index": 2
    }
  ]
}
