
     RDKit          2D

  0  0  0  0  0  0  0  0  0  0999 V3000
M  V30 BEGIN CTAB
M  V30 COUNTS 34 37 2 0 0
M  V30 BEGIN ATOM
M  V30 1 C 1.112470 -0.117609 0.000000 0
M  V30 2 C 1.112470 0.882316 0.000000 0
M  V30 3 C 0.246394 1.382242 0.000000 0
M  V30 4 C 0.246221 2.382268 0.000000 0
M  V30 5 C 1.112124 2.882368 0.000000 0
M  V30 6 C 1.978199 2.382442 0.000000 0
M  V30 7 C 1.978372 1.382416 0.000000 0
M  V30 8 C 2.112470 -0.117609 0.000000 0
M  V30 9 C 2.612457 0.748395 0.000000 0
M  V30 10 C 3.612432 0.748395 0.000000 0
M  V30 11 C 4.112420 -0.117609 0.000000 0
M  V30 12 C 3.612432 -0.983613 0.000000 0
M  V30 13 C 2.612457 -0.983613 0.000000 0
M  V30 14 C 0.246454 -0.617512 0.000000 0
M  V30 15 C -4.361337 -0.117464 0.000000 0
M  V30 16 C -4.361337 0.882543 0.000000 0
M  V30 17 C -5.227353 -0.617367 0.000000 0
M  V30 18 C -6.093348 -0.117464 0.000000 0
M  V30 19 C -0.619568 -0.117506 0.000000 0
M  V30 20 C -1.485528 -0.617513 0.000000 0
M  V30 21 C -1.485528 -1.617515 0.000000 0
M  V30 22 N -0.619326 -2.117449 0.000000 0
M  V30 23 C -0.619526 -3.117450 0.000000 0
M  V30 24 C -1.485328 -3.617520 0.000000 0
M  V30 25 C -2.351529 -3.117586 0.000000 0
M  V30 26 C -2.351329 -2.117585 0.000000 0
M  V30 27 C -2.629381 -0.117507 0.000000 0
M  V30 28 C -3.495341 -0.617514 0.000000 0
M  V30 29 C -3.495341 -1.617516 0.000000 0
M  V30 30 C -2.629139 -2.117450 0.000000 0
M  V30 31 C -2.629339 -3.117451 0.000000 0
M  V30 32 N -3.495141 -3.617521 0.000000 0
M  V30 33 C -4.361342 -3.117587 0.000000 0
M  V30 34 C -4.361142 -2.117586 0.000000 0
M  V30 END ATOM
M  V30 BEGIN BOND
M  V30 1 1 1 2
M  V30 2 2 2 3
M  V30 3 1 3 4
M  V30 4 2 4 5
M  V30 5 1 5 6
M  V30 6 2 6 7
M  V30 7 1 1 8
M  V30 8 2 8 9
M  V30 9 1 9 10
M  V30 10 2 10 11
M  V30 11 1 11 12
M  V30 12 2 12 13
M  V30 13 1 1 14
M  V30 14 1 15 16
M  V30 15 1 15 17
M  V30 16 1 17 18
M  V30 17 1 7 2
M  V30 18 1 13 8
M  V30 19 1 19 20
M  V30 20 1 20 21
M  V30 21 2 21 22
M  V30 22 1 22 23
M  V30 23 2 23 24
M  V30 24 1 24 25
M  V30 25 2 25 26
M  V30 26 1 26 21
M  V30 27 1 14 19
M  V30 28 1 27 28
M  V30 29 1 28 29
M  V30 30 2 29 30
M  V30 31 1 30 31
M  V30 32 2 31 32
M  V30 33 1 32 33
M  V30 34 2 33 34
M  V30 35 1 34 29
M  V30 36 1 15 28
M  V30 37 1 20 27
M  V30 END BOND
M  V30 BEGIN SGROUP
M  V30 1 SRU 0 ATOMS=(4 15 20 27 28) CBONDS=(2 36 37) -
M  V30 BRKXYZ=(9 -2.0575 0.1325 0 -2.0575 -0.8675 0 0 0 0) BRKXYZ=(9 -3.9283 0-
M  V30 .1325 0 -3.9283 -0.8675 0 0 0 0)
M  V30 2 SRU 0 ATOMS=(4 14 19 20 27) CBONDS=(2 27 37) -
M  V30 BRKXYZ=(9 -0.1866 0.1325 0 -0.1866 -0.8675 0 0 0 0) BRKXYZ=(9 -2.0575 0-
M  V30 .1325 0 -2.0575 -0.8675 0 0 0 0)
M  V30 END SGROUP
M  V30 END CTAB
M  END
>  <BIGSMILES_BRACKET_RECORDS_JSON>
{
  "records": [
    {
      "id": 0,
      "bracket_kind": "backbone",
      "pairing_id": "F2/fragments[0]",
      "group_id": "$a:2",
      "ru_midpoint": [
        -3.0623610015701725,
        -0.3675108457485987
      ],
      "bond_midpoint": [
        -2.057454477875223,
        -0.3675103457430398
      ],
      "orientation_vector": [
        0.0,
        1.0
      ],
      "half_bracket_size": 0.5000070589092322,
      "bond": [
        19,
        26
      ],
      "fragment": "F2",
      "backbone": true,
      "suspended_anchor_atom": null,
      "suspended_reason": null,
      "source_label": "F2/fragments[0]",
      "marker_id": "0",
      "side": "left",
      "connection_group": "$a",
      "marker_type_index": 2
    },
    {
      "id": 1,
      "bracket_kind": "backbone",
      "pairing_id": "F2/fragments[0]",
      "group_id": "$a:2",
      "ru_midpoint": [
        -3.0623610015701725,
        -0.3675108457485987
      ],
      "bond_midpoint": [
        -3.9283387734363897,
        -0.36748928765614064
      ],
      "orientation_vector": [
        0.0,
        1.0
      ],
      "half_bracket_size": 0.5000070589092322,
      "bond": [
        14,
        27
      ],
      "fragment": "F2",
      "backbone": true,
      "suspended_anchor_atom": null,
      "suspended_reason": null,
      "source_label": "F2/fragments[0]",
      "marker_id": "9",
      "side": "right",
      "connection_group": "$a",
      "marker_type_index": 2
    },
    {
      "id": 2,
      "bracket_kind": "backbone",
      "pairing_id": "F1/fragments[0]",
      "group_id": "$a:2",
      "ru_midpoint": [
        -1.052547954180273,
        -0.3675098457374809
      ],
      "bond_midpoint": [
        -0.18655744611032316,
        -0.367509345731922
      ],
      "orientation_vector": [
        0.0,
        1.0
      ],
      "half_bracket_size": 0.5000070589092322,
      "bond": [
        13,
        18
      ],
      "fragment": "F1",
      "backbone": true,
      "suspended_anchor_atom": null,
      "suspended_reason": null,
      "source_label": "F1/fragments[0]",
      "marker_id": "0",
      "side": "left",
      "connection_group": "$a",
      "marker_type_index": 2
    },
    {
      "id": 3,
      "bracket_kind": "backbone",
      "pairing_id": "F1/fragments[0]",
      "group_id": "$a:2",
      "ru_midpoint": [
        -1.052547954180273,
        -0.3675098457374809
      ],
      "bond_midpoint": [
        -2.057454477875223,
        -0.3675103457430398
      ],
      "orientation_vector": [
        0.0,
        1.0
      ],
      "half_bracket_size": 0.5000070589092322,
      "bond": [
        19,
        26
      ],
      "fragment": "F1",
      "backbone": true,
      "suspended_anchor_atom": null,
      "suspended_reason": null,
      "source_label": "F1/fragments[0]",
      "marker_id": "9",
      "side": "right",
      "connection_group": "$a",
      "marker_type_index": 2
    }
  ]
}
