
     RDKit          2D

  0  0  0  0  0  0  0  0  0  0999 V3000
M  V30 BEGIN CTAB
M  V30 COUNTS 33 33 6 0 0
M  V30 BEGIN ATOM
M  V30 1 C -0.312086 -0.402719 0.000000 0
M  V30 2 C 0.553910 0.097381 0.000000 0
M  V30 3 C 1.419915 -0.402719 0.000000 0
M  V30 4 C 1.419915 -1.402719 0.000000 0
M  V30 5 H 14.687925 0.097280 0.000000 0
M  V30 6 C 2.285936 0.097287 0.000000 0
M  V30 7 C 3.151896 -0.402720 0.000000 0
M  V30 8 C 3.151896 -1.402722 0.000000 0
M  V30 9 C 2.285694 -1.902655 0.000000 0
M  V30 10 C 2.285894 -2.902657 0.000000 0
M  V30 11 C 3.151696 -3.402726 0.000000 0
M  V30 12 C 4.017897 -2.902793 0.000000 0
M  V30 13 C 4.017697 -1.902791 0.000000 0
M  V30 14 C 4.017912 0.097296 0.000000 0
M  V30 15 C 4.883841 -0.402720 0.000000 0
M  V30 16 C 5.749858 0.097296 0.000000 0
M  V30 17 C 5.749858 1.097321 0.000000 0
M  V30 18 C 6.615911 -0.402720 0.000000 0
M  V30 19 C 7.481927 0.097296 0.000000 0
M  V30 20 C 8.347931 -0.402604 0.000000 0
M  V30 21 C 9.213928 0.097296 0.000000 0
M  V30 22 C 9.213928 1.097296 0.000000 0
M  V30 23 C 10.079932 -0.402604 0.000000 0
M  V30 24 C 10.946015 0.097296 0.000000 0
M  V30 25 C 11.812011 -0.402604 0.000000 0
M  V30 26 C 11.812011 -1.402536 0.000000 0
M  V30 27 C 10.946125 -1.902626 0.000000 0
M  V30 28 C 12.678071 -1.902478 0.000000 0
M  V30 29 C 12.955829 0.097296 0.000000 0
M  V30 30 C 13.821833 -0.402604 0.000000 0
M  V30 31 C 13.821833 0.597321 0.000000 0
M  V30 32 C 13.821833 -1.402529 0.000000 0
M  V30 33 C 12.955940 -1.902623 0.000000 0
M  V30 END ATOM
M  V30 BEGIN BOND
M  V30 1 1 1 2
M  V30 2 1 2 3
M  V30 3 1 3 4
M  V30 4 1 6 7
M  V30 5 1 7 8
M  V30 6 2 8 9
M  V30 7 1 9 10
M  V30 8 2 10 11
M  V30 9 1 11 12
M  V30 10 2 12 13
M  V30 11 1 13 8
M  V30 12 1 3 6
M  V30 13 1 14 15
M  V30 14 2 15 16
M  V30 15 1 16 17
M  V30 16 1 16 18
M  V30 17 1 19 20
M  V30 18 2 20 21
M  V30 19 1 21 22
M  V30 20 1 21 23
M  V30 21 1 18 19
M  V30 22 1 24 25
M  V30 23 1 25 26
M  V30 24 1 26 27
M  V30 25 2 26 28
M  V30 26 1 23 24
M  V30 27 1 29 30
M  V30 28 1 30 31
M  V30 29 1 30 32
M  V30 30 2 32 33
M  V30 31 1 25 29
M  V30 32 1 7 14
M  V30 33 1 5 30
M  V30 END BOND
M  V30 BEGIN SGROUP
M  V30 1 SRU 0 ATOMS=(4 7 14 18 19) CBONDS=(2 21 32) -
M  V30 BRKXYZ=(9 3.5849 -0.6527 0 3.5849 0.3473 0 0 0 0) BRKXYZ=(9 7.0489 -0.6-
M  V30 527 0 7.0489 0.3473 0 0 0 0)
M  V30 2 SRU 0 ATOMS=(4 18 19 23 24) CBONDS=(2 21 26) -
M  V30 BRKXYZ=(9 7.0489 -0.6527 0 7.0489 0.3473 0 0 0 0) BRKXYZ=(9 10.5130 -0.-
M  V30 6527 0 10.5130 0.3474 0 0 0 0)
M  V30 3 SRU 0 ATOMS=(4 23 24 25 29) CBONDS=(2 26 31) -
M  V30 BRKXYZ=(9 10.5130 0.3474 0 10.5130 -0.6527 0 0 0 0) BRKXYZ=(9 12.3839 0-
M  V30 .3474 0 12.3839 -0.6527 0 0 0 0)
M  V30 4 SRU 0 ATOMS=(4 5 25 29 30) CBONDS=(2 31 33) -
M  V30 BRKXYZ=(9 12.3839 0.3474 0 12.3839 -0.6527 0 0 0 0) BRKXYZ=(9 14.2549 0-
M  V30 .3474 0 14.2549 -0.6527 0 0 0 0)
M  V30 5 SRU 0 ATOMS=(4 5 7 14 30) CBONDS=(2 32 33) -
M  V30 BRKXYZ=(9 3.5849 -1.6528 0 3.5849 1.3473 0 0 0 0) BRKXYZ=(9 14.2549 -1.-
M  V30 6527 0 14.2549 1.3474 0 0 0 0)
M  V30 6 SRU 0 ATOMS=(4 3 6 7 14) CBONDS=(2 12 32) -
M  V30 BRKXYZ=(9 1.8529 0.3473 0 1.8529 -0.6527 0 0 0 0) BRKXYZ=(9 3.5849 0.34-
M  V30 73 0 3.5849 -0.6527 0 0 0 0)
M  V30 END SGROUP
M  V30 END CTAB
M  END
>  <BIGSMILES_BRACKET_RECORDS_JSON>
{
  "records": [
    {
      "id": 0,
      "bracket_kind": "backbone",
      "pairing_id": "F2/fragments[0]",
      "group_id": "$a:2",
      "ru_midpoint": [
        4.883883358912043,
        -0.20271360059527282
      ],
      "bond_midpoint": [
        3.5849037012277467,
        -0.1527119208084772
      ],
      "orientation_vector": [
        0.0,
        -1.0
      ],
      "half_bracket_size": 0.5000159978427487,
      "bond": [
        6,
        13
      ],
      "fragment": "F2",
      "backbone": true,
      "suspended_anchor_atom": null,
      "suspended_reason": null,
      "source_label": "F2/fragments[0]",
      "marker_id": "0",
      "side": "left",
      "connection_group": "$a",
      "marker_type_index": 2
    },
    {
      "id": 1,
      "bracket_kind": "backbone",
      "pairing_id": "F2/fragments[0]",
      "group_id": "$a:2",
      "ru_midpoint": [
        4.883883358912043,
        -0.20271360059527282
      ],
      "bond_midpoint": [
        7.048918897104249,
        -0.15271200081099814
      ],
      "orientation_vector": [
        0.0,
        -1.0
      ],
      "half_bracket_size": 0.5000159978427487,
      "bond": [
        17,
        18
      ],
      "fragment": "F2",
      "backbone": true,
      "suspended_anchor_atom": null,
      "suspended_reason": null,
      "source_label": "F2/fragments[0]",
      "marker_id": "6",
      "side": "right",
      "connection_group": "$a",
      "marker_type_index": 2
    },
    {
      "id": 2,
      "bracket_kind": "backbone",
      "pairing_id": "F2/fragments[1]",
      "group_id": "$a:2",
      "ru_midpoint": [
        8.780929443188947,
        -0.15265408189730506
      ],
      "bond_midpoint": [
        7.048918897104249,
        -0.15271200081099814
      ],
      "orientation_vector": [
        0.0,
        -1.0
      ],
      "half_bracket_size": 0.5000159978427487,
      "bond": [
        17,
        18
      ],
      "fragment": "F2",
      "backbone": true,
      "suspended_anchor_atom": null,
      "suspended_reason": null,
      "source_label": "F2/fragments[1]",
      "marker_id": "0",
      "side": "left",
      "connection_group": "$a",
      "marker_type_index": 2
    },
    {
      "id": 3,
      "bracket_kind": "backbone",
      "pairing_id": "F2/fragments[1]",
      "group_id": "$a:2",
      "ru_midpoint": [
        8.780929443188947,
        -0.15265408189730506
      ],
      "bond_midpoint": [
        10.512973425036126,
        -0.15265408189730517
      ],
      "orientation_vector": [
        0.0,
        -1.0
      ],
      "half_bracket_size": 0.5000159978427487,
      "bond": [
        22,
        23
      ],
      "fragment": "F2",
      "backbone": true,
      "suspended_anchor_atom": null,
      "suspended_reason": null,
      "source_label": "F2/fragments[1]",
      "marker_id": "6",
      "side": "right",
      "connection_group": "$a",
      "marker_type_index": 2
    },
    {
      "id": 4,
      "bracket_kind": "backbone",
      "pairing_id": "F2/fragments[2]",
      "group_id": "$a:2",
      "ru_midpoint": [
        11.379013047762282,
        -0.15265408189730506
      ],
      "bond_midpoint": [
        10.512973425036126,
        -0.15265408189730517
      ],
      "orientation_vector": [
        0.0,
        1.0
      ],
      "half_bracket_size": 0.5000159978427487,
      "bond": [
        22,
        23
      ],
      "fragment": "F2",
      "backbone": true,
      "suspended_anchor_atom": null,
      "suspended_reason": null,
      "source_label": "F2/fragments[2]",
      "marker_id": "0",
      "side": "left",
      "connection_group": "$a",
      "marker_type_index": 2
    },
    {
      "id": 5,
      "bracket_kind": "backbone",
      "pairing_id": "F2/fragments[2]",
      "group_id": "$a:2",
      "ru_midpoint": [
        11.379013047762282,
        -0.15265408189730506
      ],
      "bond_midpoint": [
        12.38391985798844,
        -0.15265408189730506
      ],
      "orientation_vector": [
        0.0,
        1.0
      ],
      "half_bracket_size": 0.5000159978427487,
      "bond": [
        24,
        28
      ],
      "fragment": "F2",
      "backbone": true,
      "suspended_anchor_atom": null,
      "suspended_reason": null,
      "source_label": "F2/fragments[2]",
      "marker_id": "6",
      "side": "right",
      "connection_group": "$a",
      "marker_type_index": 2
    },
    {
      "id": 6,
      "bracket_kind": "backbone",
      "pairing_id": "F2/fragments[3]",
      "group_id": "$a:2",
      "ru_midpoint": [
        13.821871466253835,
        -0.06933738856141153
      ],
      "bond_midpoint": [
        12.38391985798844,
        -0.15265408189730506
      ],
      "orientation_vector": [
        0.0,
        1.0
      ],
      "half_bracket_size": 0.5000159978427487,
      "bond": [
        24,
        28
      ],
      "fragment": "F2",
      "backbone": true,
      "suspended_anchor_atom": null,
      "suspended_reason": null,
      "source_label": "F2/fragments[3]",
      "marker_id": "0",
      "side": "left",
      "connection_group": "$a",
      "marker_type_index": 2
    },
    {
      "id": 7,
      "bracket_kind": "backbone",
      "pairing_id": "F2/fragments[3]",
      "group_id": "$a:2",
      "ru_midpoint": [
        13.821871466253835,
        -0.06933738856141153
      ],
      "bond_midpoint": [
        14.254879059693511,
        -0.15266207991596237
      ],
      "orientation_vector": [
        0.0,
        1.0
      ],
      "half_bracket_size": 0.5000159978427487,
      "bond": [
        4,
        29
      ],
      "fragment": "F2",
      "backbone": true,
      "suspended_anchor_atom": null,
      "suspended_reason": null,
      "source_label": "F2/fragments[3]",
      "marker_id": "6",
      "side": "right",
      "connection_group": "$a",
      "marker_type_index": 2
    },
    {
      "id": 8,
      "bracket_kind": "backbone",
      "pairing_id": "F2/connected",
      "group_id": "$overall",
      "ru_midpoint": [
        8.840483932971576,
        -0.1526789042888877
      ],
      "bond_midpoint": [
        3.5849037012277467,
        -0.1527119208084772
      ],
      "orientation_vector": [
        0.0,
        -1.0
      ],
      "half_bracket_size": 1.5000406575386986,
      "bond": [
        6,
        13
      ],
      "fragment": "F2",
      "backbone": true,
      "suspended_anchor_atom": null,
      "suspended_reason": null,
      "source_label": "F2/connected",
      "marker_id": "connected-overall-left",
      "side": "left",
      "connection_group": "$overall",
      "marker_type_index": null
    },
    {
      "id": 9,
      "bracket_kind": "backbone",
      "pairing_id": "F2/connected",
      "group_id": "$overall",
      "ru_midpoint": [
        8.840483932971576,
        -0.1526789042888877
      ],
      "bond_midpoint": [
        14.254879059693511,
        -0.15266207991596237
      ],
      "orientation_vector": [
        0.0,
        -1.0
      ],
      "half_bracket_size": 1.5000406575386986,
      "bond": [
        4,
        29
      ],
      "fragment": "F2",
      "backbone": true,
      "suspended_anchor_atom": null,
      "suspended_reason": null,
      "source_label": "F2/connected",
      "marker_id": "connected-overall-right",
      "side": "right",
      "connection_group": "$overall",
      "marker_type_index": null
    },
    {
      "id": 10,
      "bracket_kind": "backbone",
      "pairing_id": "F1/fragments[0]",
      "group_id": "$a:2",
      "ru_midpoint": [
        2.7188905477066294,
        -0.15271631027271432
      ],
      "bond_midpoint": [
        1.8529255081069689,
        -0.15271581026715556
      ],
      "orientation_vector": [
        0.0,
        1.0
      ],
      "half_bracket_size": 0.5000070589092322,
      "bond": [
        2,
        5
      ],
      "fragment": "F1",
      "backbone": true,
      "suspended_anchor_atom": null,
      "suspended_reason": null,
      "source_label": "F1/fragments[0]",
      "marker_id": "0",
      "side": "left",
      "connection_group": "$a",
      "marker_type_index": 2
    },
    {
      "id": 11,
      "bracket_kind": "backbone",
      "pairing_id": "F1/fragments[0]",
      "group_id": "$a:2",
      "ru_midpoint": [
        2.7188905477066294,
        -0.15271631027271432
      ],
      "bond_midpoint": [
        3.5849037012277467,
        -0.1527119208084772
      ],
      "orientation_vector": [
        0.0,
        1.0
      ],
      "half_bracket_size": 0.5000070589092322,
      "bond": [
        6,
        13
      ],
      "fragment": "F1",
      "backbone": true,
      "suspended_anchor_atom": null,
      "suspended_reason": null,
      "source_label": "F1/fragments[0]",
      "marker_id": "9",
      "side": "right",
      "connection_group": "$a",
      "marker_type_index": 2
    }
  ]
}
