
     RDKit          2D

  0  0  0  0  0  0  0  0  0  0999 V3000
M  V30 BEGIN CTAB
M  V30 COUNTS 28 28 5 0 0
M  V30 BEGIN ATOM
M  V30 1 C 1.419866 -0.402655 0.000000 0
M  V30 2 C 2.285862 0.097445 0.000000 0
M  V30 3 C 3.151867 -0.402655 0.000000 0
M  V30 4 C 3.151867 -1.402656 0.000000 0
M  V30 5 H 12.955907 0.097265 0.000000 0
M  V30 6 C 4.017889 0.097351 0.000000 0
M  V30 7 C 4.883848 -0.402656 0.000000 0
M  V30 8 C 4.883848 -1.402658 0.000000 0
M  V30 9 C 4.017646 -1.902592 0.000000 0
M  V30 10 C 4.017846 -2.902593 0.000000 0
M  V30 11 C 4.883648 -3.402663 0.000000 0
M  V30 12 C 5.749850 -2.902729 0.000000 0
M  V30 13 C 5.749650 -1.902728 0.000000 0
M  V30 14 C 5.749909 0.097281 0.000000 0
M  V30 15 C 6.615914 -0.402619 0.000000 0
M  V30 16 C 7.481910 0.097281 0.000000 0
M  V30 17 C 7.481910 1.097282 0.000000 0
M  V30 18 C 8.347914 -0.402619 0.000000 0
M  V30 19 C 9.213997 0.097281 0.000000 0
M  V30 20 C 10.079993 -0.402619 0.000000 0
M  V30 21 C 10.079993 -1.402551 0.000000 0
M  V30 22 C 9.214107 -1.902641 0.000000 0
M  V30 23 C 10.946053 -1.902492 0.000000 0
M  V30 24 C 11.223811 0.097281 0.000000 0
M  V30 25 C 12.089815 -0.402619 0.000000 0
M  V30 26 C 12.089815 0.597306 0.000000 0
M  V30 27 C 12.089815 -1.402544 0.000000 0
M  V30 28 C 11.223923 -1.902637 0.000000 0
M  V30 END ATOM
M  V30 BEGIN BOND
M  V30 1 1 1 2
M  V30 2 1 2 3
M  V30 3 1 3 4
M  V30 4 1 6 7
M  V30 5 1 7 8
M  V30 6 1 8 9
M  V30 7 1 9 10
M  V30 8 1 10 11
M  V30 9 1 11 12
M  V30 10 1 12 13
M  V30 11 1 13 8
M  V30 12 1 3 6
M  V30 13 1 14 15
M  V30 14 1 15 16
M  V30 15 1 16 17
M  V30 16 1 16 18
M  V30 17 1 19 20
M  V30 18 1 20 21
M  V30 19 1 21 22
M  V30 20 1 21 23
M  V30 21 1 18 19
M  V30 22 1 24 25
M  V30 23 1 25 26
M  V30 24 1 25 27
M  V30 25 1 27 28
M  V30 26 1 20 24
M  V30 27 1 7 14
M  V30 28 1 5 25
M  V30 END BOND
M  V30 BEGIN SGROUP
M  V30 1 SRU 0 ATOMS=(4 7 14 18 19) CBONDS=(2 21 27) -
M  V30 BRKXYZ=(9 5.3169 -0.6526 0 5.3169 0.3472 0 0 0 0) BRKXYZ=(9 8.7810 -0.6-
M  V30 526 0 8.7810 0.3472 0 0 0 0)
M  V30 2 SRU 0 ATOMS=(4 18 19 20 24) CBONDS=(2 21 26) -
M  V30 BRKXYZ=(9 8.7810 0.3472 0 8.7810 -0.6526 0 0 0 0) BRKXYZ=(9 10.6519 0.3-
M  V30 472 0 10.6519 -0.6526 0 0 0 0)
M  V30 3 SRU 0 ATOMS=(4 5 20 24 25) CBONDS=(2 26 28) -
M  V30 BRKXYZ=(9 10.6519 0.3472 0 10.6519 -0.6526 0 0 0 0) BRKXYZ=(9 12.5229 0-
M  V30 .3472 0 12.5229 -0.6526 0 0 0 0)
M  V30 4 SRU 0 ATOMS=(4 5 7 14 25) CBONDS=(2 27 28) -
M  V30 BRKXYZ=(9 5.3169 -3.1526 0 5.3169 2.8472 0 0 0 0) BRKXYZ=(9 12.5229 -3.-
M  V30 1526 0 12.5229 2.8472 0 0 0 0)
M  V30 5 SRU 0 ATOMS=(4 3 6 7 14) CBONDS=(2 12 27) -
M  V30 BRKXYZ=(9 3.5849 0.3474 0 3.5849 -0.6527 0 0 0 0) BRKXYZ=(9 5.3169 0.34-
M  V30 73 0 5.3169 -0.6527 0 0 0 0)
M  V30 END SGROUP
M  V30 END CTAB
M  END
>  <BIGSMILES_BRACKET_RECORDS_JSON>
{
  "records": [
    {
      "id": 0,
      "bracket_kind": "backbone",
      "pairing_id": "F2/fragments[0]",
      "group_id": "$a:2",
      "ru_midpoint": [
        6.61591196949364,
        -0.20265866162054033
      ],
      "bond_midpoint": [
        5.316878572376934,
        -0.15268744398550319
      ],
      "orientation_vector": [
        0.0,
        -1.0
      ],
      "half_bracket_size": 0.4999001600153621,
      "bond": [
        6,
        13
      ],
      "fragment": "F2",
      "backbone": true,
      "suspended_anchor_atom": null,
      "suspended_reason": null,
      "source_label": "F2/fragments[0]",
      "marker_id": "0",
      "side": "left",
      "connection_group": "$a",
      "marker_type_index": 2
    },
    {
      "id": 1,
      "bracket_kind": "backbone",
      "pairing_id": "F2/fragments[0]",
      "group_id": "$a:2",
      "ru_midpoint": [
        6.61591196949364,
        -0.20265866162054033
      ],
      "bond_midpoint": [
        8.780955685174648,
        -0.15266864561900423
      ],
      "orientation_vector": [
        0.0,
        -1.0
      ],
      "half_bracket_size": 0.4999001600153621,
      "bond": [
        17,
        18
      ],
      "fragment": "F2",
      "backbone": true,
      "suspended_anchor_atom": null,
      "suspended_reason": null,
      "source_label": "F2/fragments[0]",
      "marker_id": "6",
      "side": "right",
      "connection_group": "$a",
      "marker_type_index": 2
    },
    {
      "id": 2,
      "bracket_kind": "backbone",
      "pairing_id": "F2/fragments[1]",
      "group_id": "$a:2",
      "ru_midpoint": [
        9.646995307900806,
        -0.15266864561900417
      ],
      "bond_midpoint": [
        8.780955685174648,
        -0.15266864561900423
      ],
      "orientation_vector": [
        0.0,
        1.0
      ],
      "half_bracket_size": 0.4999001600153621,
      "bond": [
        17,
        18
      ],
      "fragment": "F2",
      "backbone": true,
      "suspended_anchor_atom": null,
      "suspended_reason": null,
      "source_label": "F2/fragments[1]",
      "marker_id": "0",
      "side": "left",
      "connection_group": "$a",
      "marker_type_index": 2
    },
    {
      "id": 3,
      "bracket_kind": "backbone",
      "pairing_id": "F2/fragments[1]",
      "group_id": "$a:2",
      "ru_midpoint": [
        9.646995307900806,
        -0.15266864561900417
      ],
      "bond_midpoint": [
        10.651902118126962,
        -0.15266864561900412
      ],
      "orientation_vector": [
        0.0,
        1.0
      ],
      "half_bracket_size": 0.4999001600153621,
      "bond": [
        19,
        23
      ],
      "fragment": "F2",
      "backbone": true,
      "suspended_anchor_atom": null,
      "suspended_reason": null,
      "source_label": "F2/fragments[1]",
      "marker_id": "6",
      "side": "right",
      "connection_group": "$a",
      "marker_type_index": 2
    },
    {
      "id": 4,
      "bracket_kind": "backbone",
      "pairing_id": "F2/fragments[2]",
      "group_id": "$a:2",
      "ru_midpoint": [
        12.089853726392356,
        -0.0693519522831105
      ],
      "bond_midpoint": [
        10.651902118126962,
        -0.15266864561900412
      ],
      "orientation_vector": [
        0.0,
        1.0
      ],
      "half_bracket_size": 0.4999001600153621,
      "bond": [
        19,
        23
      ],
      "fragment": "F2",
      "backbone": true,
      "suspended_anchor_atom": null,
      "suspended_reason": null,
      "source_label": "F2/fragments[2]",
      "marker_id": "0",
      "side": "left",
      "connection_group": "$a",
      "marker_type_index": 2
    },
    {
      "id": 5,
      "bracket_kind": "backbone",
      "pairing_id": "F2/fragments[2]",
      "group_id": "$a:2",
      "ru_midpoint": [
        12.089853726392356,
        -0.0693519522831105
      ],
      "bond_midpoint": [
        12.522861319832032,
        -0.15267664363766129
      ],
      "orientation_vector": [
        0.0,
        1.0
      ],
      "half_bracket_size": 0.4999001600153621,
      "bond": [
        4,
        24
      ],
      "fragment": "F2",
      "backbone": true,
      "suspended_anchor_atom": null,
      "suspended_reason": null,
      "source_label": "F2/fragments[2]",
      "marker_id": "6",
      "side": "right",
      "connection_group": "$a",
      "marker_type_index": 2
    },
    {
      "id": 6,
      "bracket_kind": "backbone",
      "pairing_id": "F2/connected",
      "group_id": "$overall",
      "ru_midpoint": [
        8.864311164244688,
        -0.15266864561900415
      ],
      "bond_midpoint": [
        5.316878572376934,
        -0.15268744398550319
      ],
      "orientation_vector": [
        0.0,
        -1.0
      ],
      "half_bracket_size": 2.9999227350143496,
      "bond": [
        6,
        13
      ],
      "fragment": "F2",
      "backbone": true,
      "suspended_anchor_atom": null,
      "suspended_reason": null,
      "source_label": "F2/connected",
      "marker_id": "connected-overall-left",
      "side": "left",
      "connection_group": "$overall",
      "marker_type_index": null
    },
    {
      "id": 7,
      "bracket_kind": "backbone",
      "pairing_id": "F2/connected",
      "group_id": "$overall",
      "ru_midpoint": [
        8.864311164244688,
        -0.15266864561900415
      ],
      "bond_midpoint": [
        12.522861319832032,
        -0.15267664363766129
      ],
      "orientation_vector": [
        0.0,
        -1.0
      ],
      "half_bracket_size": 2.9999227350143496,
      "bond": [
        4,
        24
      ],
      "fragment": "F2",
      "backbone": true,
      "suspended_anchor_atom": null,
      "suspended_reason": null,
      "source_label": "F2/connected",
      "marker_id": "connected-overall-right",
      "side": "right",
      "connection_group": "$overall",
      "marker_type_index": null
    },
    {
      "id": 8,
      "bracket_kind": "backbone",
      "pairing_id": "F1/fragments[0]",
      "group_id": "$a:2",
      "ru_midpoint": [
        4.45084288018142,
        -0.15265279290506711
      ],
      "bond_midpoint": [
        3.5848778405817594,
        -0.15265229289950827
      ],
      "orientation_vector": [
        0.0,
        1.0
      ],
      "half_bracket_size": 0.5000070589092322,
      "bond": [
        2,
        5
      ],
      "fragment": "F1",
      "backbone": true,
      "suspended_anchor_atom": null,
      "suspended_reason": null,
      "source_label": "F1/fragments[0]",
      "marker_id": "0",
      "side": "left",
      "connection_group": "$a",
      "marker_type_index": 2
    },
    {
      "id": 9,
      "bracket_kind": "backbone",
      "pairing_id": "F1/fragments[0]",
      "group_id": "$a:2",
      "ru_midpoint": [
        4.45084288018142,
        -0.15265279290506711
      ],
      "bond_midpoint": [
        5.316878572376934,
        -0.15268744398550319
      ],
      "orientation_vector": [
        0.0,
        1.0
      ],
      "half_bracket_size": 0.5000070589092322,
      "bond": [
        6,
        13
      ],
      "fragment": "F1",
      "backbone": true,
      "suspended_anchor_atom": null,
      "suspended_reason": null,
      "source_label": "F1/fragments[0]",
      "marker_id": "9",
      "side": "right",
      "connection_group": "$a",
      "marker_type_index": 2
    }
  ]
}
