
     RDKit          2D

  0  0  0  0  0  0  0  0  0  0999 V3000
M  V30 BEGIN CTAB
M  V30 COUNTS 21 21 4 0 0
M  V30 BEGIN ATOM
M  V30 1 C 2.285968 -0.402640 0.000000 0
M  V30 2 C 3.151964 0.097460 0.000000 0
M  V30 3 C 4.017968 -0.402640 0.000000 0
M  V30 4 C 4.017968 -1.402641 0.000000 0
M  V30 5 H 12.089899 0.097334 0.000000 0
M  V30 6 C 4.883990 0.097366 0.000000 0
M  V30 7 C 5.749949 -0.402641 0.000000 0
M  V30 8 C 5.749949 -1.402643 0.000000 0
M  V30 9 C 4.883748 -1.902577 0.000000 0
M  V30 10 C 4.883948 -2.902578 0.000000 0
M  V30 11 C 5.749749 -3.402648 0.000000 0
M  V30 12 C 6.615951 -2.902714 0.000000 0
M  V30 13 C 6.615751 -1.902713 0.000000 0
M  V30 14 C 6.893745 0.097297 0.000000 0
M  V30 15 C 7.759749 -0.402604 0.000000 0
M  V30 16 C 7.759749 -1.402628 0.000000 0
M  V30 17 C 6.893597 -1.902472 0.000000 0
M  V30 18 C 8.625833 0.097297 0.000000 0
M  V30 19 C 9.491837 -0.402604 0.000000 0
M  V30 20 C 10.357833 0.097297 0.000000 0
M  V30 21 C 11.223837 -0.402604 0.000000 0
M  V30 END ATOM
M  V30 BEGIN BOND
M  V30 1 1 1 2
M  V30 2 1 2 3
M  V30 3 1 3 4
M  V30 4 1 6 7
M  V30 5 1 7 8
M  V30 6 1 8 9
M  V30 7 1 9 10
M  V30 8 1 10 11
M  V30 9 1 11 12
M  V30 10 1 12 13
M  V30 11 1 13 8
M  V30 12 1 3 6
M  V30 13 1 14 15
M  V30 14 1 15 16
M  V30 15 1 16 17
M  V30 16 1 18 19
M  V30 17 1 19 20
M  V30 18 1 20 21
M  V30 19 1 15 18
M  V30 20 1 7 14
M  V30 21 1 5 21
M  V30 END BOND
M  V30 BEGIN SGROUP
M  V30 1 SRU 0 ATOMS=(4 7 14 15 18) CBONDS=(2 19 20) -
M  V30 BRKXYZ=(9 6.3218 0.3472 0 6.3218 -0.6526 0 0 0 0) BRKXYZ=(9 8.1928 0.34-
M  V30 72 0 8.1928 -0.6526 0 0 0 0)
M  V30 2 SRU 0 ATOMS=(4 5 15 18 21) CBONDS=(2 19 21) -
M  V30 BRKXYZ=(9 8.1928 0.3472 0 8.1928 -0.6526 0 0 0 0) BRKXYZ=(9 11.6569 0.3-
M  V30 473 0 11.6569 -0.6525 0 0 0 0)
M  V30 3 SRU 0 ATOMS=(4 5 7 14 21) CBONDS=(2 20 21) -
M  V30 BRKXYZ=(9 6.3218 1.8471 0 6.3218 -2.1524 0 0 0 0) BRKXYZ=(9 11.6569 1.8-
M  V30 471 0 11.6569 -2.1524 0 0 0 0)
M  V30 4 SRU 0 ATOMS=(4 3 6 7 14) CBONDS=(2 12 20) -
M  V30 BRKXYZ=(9 4.4510 0.3474 0 4.4510 -0.6526 0 0 0 0) BRKXYZ=(9 6.3218 0.34-
M  V30 73 0 6.3218 -0.6527 0 0 0 0)
M  V30 END SGROUP
M  V30 END CTAB
M  END
>  <BIGSMILES_BRACKET_RECORDS_JSON>
{
  "records": [
    {
      "id": 0,
      "bracket_kind": "backbone",
      "pairing_id": "F2/fragments[0]",
      "group_id": "$a:2",
      "ru_midpoint": [
        7.32674730775626,
        -0.15265351431049268
      ],
      "bond_midpoint": [
        6.32184727221561,
        -0.15267231267699186
      ],
      "orientation_vector": [
        0.0,
        1.0
      ],
      "half_bracket_size": 0.49990016001536275,
      "bond": [
        6,
        13
      ],
      "fragment": "F2",
      "backbone": true,
      "suspended_anchor_atom": null,
      "suspended_reason": null,
      "source_label": "F2/fragments[0]",
      "marker_id": "0",
      "side": "left",
      "connection_group": "$a",
      "marker_type_index": 2
    },
    {
      "id": 1,
      "bracket_kind": "backbone",
      "pairing_id": "F2/fragments[0]",
      "group_id": "$a:2",
      "ru_midpoint": [
        7.32674730775626,
        -0.15265351431049268
      ],
      "bond_midpoint": [
        8.192791006693556,
        -0.15265351431049268
      ],
      "orientation_vector": [
        0.0,
        1.0
      ],
      "half_bracket_size": 0.49990016001536275,
      "bond": [
        14,
        17
      ],
      "fragment": "F2",
      "backbone": true,
      "suspended_anchor_atom": null,
      "suspended_reason": null,
      "source_label": "F2/fragments[0]",
      "marker_id": "5",
      "side": "right",
      "connection_group": "$a",
      "marker_type_index": 2
    },
    {
      "id": 2,
      "bracket_kind": "backbone",
      "pairing_id": "F2/fragments[1]",
      "group_id": "$a:2",
      "ru_midpoint": [
        9.924834988540738,
        -0.15265351431049246
      ],
      "bond_midpoint": [
        8.192791006693556,
        -0.15265351431049268
      ],
      "orientation_vector": [
        0.0,
        1.0
      ],
      "half_bracket_size": 0.49990016001536275,
      "bond": [
        14,
        17
      ],
      "fragment": "F2",
      "backbone": true,
      "suspended_anchor_atom": null,
      "suspended_reason": null,
      "source_label": "F2/fragments[1]",
      "marker_id": "0",
      "side": "left",
      "connection_group": "$a",
      "marker_type_index": 2
    },
    {
      "id": 3,
      "bracket_kind": "backbone",
      "pairing_id": "F2/fragments[1]",
      "group_id": "$a:2",
      "ru_midpoint": [
        9.924834988540738,
        -0.15265351431049246
      ],
      "bond_midpoint": [
        11.656868119491271,
        -0.15263471594399308
      ],
      "orientation_vector": [
        0.0,
        1.0
      ],
      "half_bracket_size": 0.49990016001536275,
      "bond": [
        4,
        20
      ],
      "fragment": "F2",
      "backbone": true,
      "suspended_anchor_atom": null,
      "suspended_reason": null,
      "source_label": "F2/fragments[1]",
      "marker_id": "5",
      "side": "right",
      "connection_group": "$a",
      "marker_type_index": 2
    },
    {
      "id": 4,
      "bracket_kind": "backbone",
      "pairing_id": "F2/connected",
      "group_id": "$overall",
      "ru_midpoint": [
        9.05880576161258,
        -0.15265351431049254
      ],
      "bond_midpoint": [
        6.32184727221561,
        -0.15267231267699186
      ],
      "orientation_vector": [
        0.0,
        1.0
      ],
      "half_bracket_size": 1.9997688137103982,
      "bond": [
        6,
        13
      ],
      "fragment": "F2",
      "backbone": true,
      "suspended_anchor_atom": null,
      "suspended_reason": null,
      "source_label": "F2/connected",
      "marker_id": "connected-overall-left",
      "side": "left",
      "connection_group": "$overall",
      "marker_type_index": null
    },
    {
      "id": 5,
      "bracket_kind": "backbone",
      "pairing_id": "F2/connected",
      "group_id": "$overall",
      "ru_midpoint": [
        9.05880576161258,
        -0.15265351431049254
      ],
      "bond_midpoint": [
        11.656868119491271,
        -0.15263471594399308
      ],
      "orientation_vector": [
        0.0,
        1.0
      ],
      "half_bracket_size": 1.9997688137103982,
      "bond": [
        4,
        20
      ],
      "fragment": "F2",
      "backbone": true,
      "suspended_anchor_atom": null,
      "suspended_reason": null,
      "source_label": "F2/connected",
      "marker_id": "connected-overall-right",
      "side": "right",
      "connection_group": "$overall",
      "marker_type_index": null
    },
    {
      "id": 6,
      "bracket_kind": "backbone",
      "pairing_id": "F1/fragments[0]",
      "group_id": "$a:2",
      "ru_midpoint": [
        5.316969860990385,
        -0.15263766159655606
      ],
      "bond_midpoint": [
        4.450979352920435,
        -0.1526371615909971
      ],
      "orientation_vector": [
        0.0,
        1.0
      ],
      "half_bracket_size": 0.5000070589092322,
      "bond": [
        2,
        5
      ],
      "fragment": "F1",
      "backbone": true,
      "suspended_anchor_atom": null,
      "suspended_reason": null,
      "source_label": "F1/fragments[0]",
      "marker_id": "0",
      "side": "left",
      "connection_group": "$a",
      "marker_type_index": 2
    },
    {
      "id": 7,
      "bracket_kind": "backbone",
      "pairing_id": "F1/fragments[0]",
      "group_id": "$a:2",
      "ru_midpoint": [
        5.316969860990385,
        -0.15263766159655606
      ],
      "bond_midpoint": [
        6.32184727221561,
        -0.15267231267699186
      ],
      "orientation_vector": [
        0.0,
        1.0
      ],
      "half_bracket_size": 0.5000070589092322,
      "bond": [
        6,
        13
      ],
      "fragment": "F1",
      "backbone": true,
      "suspended_anchor_atom": null,
      "suspended_reason": null,
      "source_label": "F1/fragments[0]",
      "marker_id": "9",
      "side": "right",
      "connection_group": "$a",
      "marker_type_index": 2
    }
  ]
}
