
     RDKit          2D

  0  0  0  0  0  0  0  0  0  0999 V3000
M  V30 BEGIN CTAB
M  V30 COUNTS 44 45 8 0 0
M  V30 BEGIN ATOM
M  V30 1 C 2.621449 -0.326537 0.000000 0
M  V30 2 C 3.487445 0.173563 0.000000 0
M  V30 3 C 4.353450 -0.326537 0.000000 0
M  V30 4 C 4.353450 -1.326537 0.000000 0
M  V30 5 H 21.951157 -0.326477 0.000000 0
M  V30 6 C 5.219472 0.173469 0.000000 0
M  V30 7 C 6.085431 -0.326538 0.000000 0
M  V30 8 C 6.085431 -1.326540 0.000000 0
M  V30 9 C 5.219229 -1.826473 0.000000 0
M  V30 10 C 5.219429 -2.826475 0.000000 0
M  V30 11 C 6.085231 -3.326544 0.000000 0
M  V30 12 C 6.951433 -2.826611 0.000000 0
M  V30 13 C 6.951233 -1.826609 0.000000 0
M  V30 14 C 6.951447 0.173478 0.000000 0
M  V30 15 C 7.817376 -0.326538 0.000000 0
M  V30 16 C 8.683393 0.173478 0.000000 0
M  V30 17 C 8.683393 1.173502 0.000000 0
M  V30 18 C 9.549446 -0.326538 0.000000 0
M  V30 19 C 10.415462 0.173478 0.000000 0
M  V30 20 C 11.281466 -0.326422 0.000000 0
M  V30 21 C 12.147463 0.173478 0.000000 0
M  V30 22 C 12.147463 1.173478 0.000000 0
M  V30 23 C 13.013467 -0.326422 0.000000 0
M  V30 24 C 13.879550 0.173478 0.000000 0
M  V30 25 C 14.745546 -0.326422 0.000000 0
M  V30 26 C 14.745546 -1.326354 0.000000 0
M  V30 27 C 13.879660 -1.826445 0.000000 0
M  V30 28 C 15.611606 -1.826296 0.000000 0
M  V30 29 C 15.889364 0.173478 0.000000 0
M  V30 30 C 16.755368 -0.326422 0.000000 0
M  V30 31 C 16.755368 0.673502 0.000000 0
M  V30 32 C 16.755368 -1.326347 0.000000 0
M  V30 33 C 15.889476 -1.826441 0.000000 0
M  V30 34 C 17.621390 0.173584 0.000000 0
M  V30 35 C 18.487349 -0.326423 0.000000 0
M  V30 36 C 18.487349 -1.326425 0.000000 0
M  V30 37 C 17.621147 -1.826359 0.000000 0
M  V30 38 C 17.621347 -2.826360 0.000000 0
M  V30 39 C 18.487149 -3.326430 0.000000 0
M  V30 40 C 19.353351 -2.826496 0.000000 0
M  V30 41 C 19.353151 -1.826495 0.000000 0
M  V30 42 C 19.353326 0.173661 0.000000 0
M  V30 43 C 20.219322 -0.326439 0.000000 0
M  V30 44 O 21.085211 0.173661 0.000000 0
M  V30 END ATOM
M  V30 BEGIN BOND
M  V30 1 1 1 2
M  V30 2 1 2 3
M  V30 3 1 3 4
M  V30 4 1 6 7
M  V30 5 1 7 8
M  V30 6 2 8 9
M  V30 7 1 9 10
M  V30 8 2 10 11
M  V30 9 1 11 12
M  V30 10 2 12 13
M  V30 11 1 13 8
M  V30 12 1 3 6
M  V30 13 1 14 15
M  V30 14 2 15 16
M  V30 15 1 16 17
M  V30 16 1 16 18
M  V30 17 1 19 20
M  V30 18 2 20 21
M  V30 19 1 21 22
M  V30 20 1 21 23
M  V30 21 1 18 19
M  V30 22 1 24 25
M  V30 23 1 25 26
M  V30 24 1 26 27
M  V30 25 2 26 28
M  V30 26 1 23 24
M  V30 27 1 29 30
M  V30 28 1 30 31
M  V30 29 1 30 32
M  V30 30 2 32 33
M  V30 31 1 25 29
M  V30 32 1 7 14
M  V30 33 1 34 35
M  V30 34 1 35 36
M  V30 35 2 36 37
M  V30 36 1 37 38
M  V30 37 2 38 39
M  V30 38 1 39 40
M  V30 39 2 40 41
M  V30 40 1 41 36
M  V30 41 1 30 34
M  V30 42 1 42 43
M  V30 43 1 43 44
M  V30 44 1 35 42
M  V30 45 1 5 44
M  V30 END BOND
M  V30 BEGIN SGROUP
M  V30 1 SRU 0 ATOMS=(4 5 35 42 44) CBONDS=(2 44 45) -
M  V30 BRKXYZ=(9 18.9203 -0.5765 0 18.9203 0.4237 0 0 0 0) BRKXYZ=(9 21.5182 --
M  V30 0.5765 0 21.5182 0.4237 0 0 0 0)
M  V30 2 SRU 0 ATOMS=(4 30 34 35 42) CBONDS=(2 41 44) -
M  V30 BRKXYZ=(9 17.1884 0.4236 0 17.1884 -0.5764 0 0 0 0) BRKXYZ=(9 18.9203 0-
M  V30 .4236 0 18.9203 -0.5764 0 0 0 0)
M  V30 3 SRU 0 ATOMS=(4 7 14 18 19) CBONDS=(2 21 32) -
M  V30 BRKXYZ=(9 6.5184 -0.5765 0 6.5184 0.4235 0 0 0 0) BRKXYZ=(9 9.9825 -0.5-
M  V30 765 0 9.9825 0.4235 0 0 0 0)
M  V30 4 SRU 0 ATOMS=(4 18 19 23 24) CBONDS=(2 21 26) -
M  V30 BRKXYZ=(9 9.9825 -0.5765 0 9.9825 0.4235 0 0 0 0) BRKXYZ=(9 13.4465 -0.-
M  V30 5765 0 13.4465 0.4235 0 0 0 0)
M  V30 5 SRU 0 ATOMS=(4 23 24 25 29) CBONDS=(2 26 31) -
M  V30 BRKXYZ=(9 13.4465 0.4235 0 13.4465 -0.5765 0 0 0 0) BRKXYZ=(9 15.3175 0-
M  V30 .4235 0 15.3175 -0.5765 0 0 0 0)
M  V30 6 SRU 0 ATOMS=(4 25 29 30 34) CBONDS=(2 31 41) -
M  V30 BRKXYZ=(9 15.3175 0.4235 0 15.3175 -0.5765 0 0 0 0) BRKXYZ=(9 17.1884 0-
M  V30 .4236 0 17.1884 -0.5764 0 0 0 0)
M  V30 7 SRU 0 ATOMS=(4 7 14 30 34) CBONDS=(2 32 41) -
M  V30 BRKXYZ=(9 6.5184 -1.5766 0 6.5184 1.4235 0 0 0 0) BRKXYZ=(9 17.1884 -1.-
M  V30 5765 0 17.1884 1.4236 0 0 0 0)
M  V30 8 SRU 0 ATOMS=(4 3 6 7 14) CBONDS=(2 12 32) -
M  V30 BRKXYZ=(9 4.7865 0.4235 0 4.7865 -0.5765 0 0 0 0) BRKXYZ=(9 6.5184 0.42-
M  V30 35 0 6.5184 -0.5765 0 0 0 0)
M  V30 END SGROUP
M  V30 END CTAB
M  END
>  <BIGSMILES_BRACKET_RECORDS_JSON>
{
  "records": [
    {
      "id": 0,
      "bracket_kind": "backbone",
      "pairing_id": "F4/fragments[0]",
      "group_id": "<1:3",
      "ru_midpoint": [
        20.219254259827323,
        -0.12639933001260645
      ],
      "bond_midpoint": [
        18.92033743554238,
        -0.07638131279910113
      ],
      "orientation_vector": [
        0.0,
        -1.0
      ],
      "half_bracket_size": 0.5001001599500253,
      "bond": [
        34,
        41
      ],
      "fragment": "F4",
      "backbone": true,
      "suspended_anchor_atom": null,
      "suspended_reason": null,
      "source_label": "F4/fragments[0]",
      "marker_id": "0",
      "side": "left",
      "connection_group": "<1",
      "marker_type_index": 3
    },
    {
      "id": 1,
      "bracket_kind": "backbone",
      "pairing_id": "F4/fragments[0]",
      "group_id": ">1:4",
      "ru_midpoint": [
        20.219254259827323,
        -0.12639933001260645
      ],
      "bond_midpoint": [
        21.518183687439887,
        -0.07640811990494889
      ],
      "orientation_vector": [
        0.0,
        -1.0
      ],
      "half_bracket_size": 0.5001001599500253,
      "bond": [
        4,
        43
      ],
      "fragment": "F4",
      "backbone": true,
      "suspended_anchor_atom": null,
      "suspended_reason": null,
      "source_label": "F4/fragments[0]",
      "marker_id": "4",
      "side": "right",
      "connection_group": ">1",
      "marker_type_index": 4
    },
    {
      "id": 2,
      "bracket_kind": "backbone",
      "pairing_id": "F3/fragments[0]",
      "group_id": "$a:2",
      "ru_midpoint": [
        18.054344006842385,
        -0.0764198621009945
      ],
      "bond_midpoint": [
        17.18837896724272,
        -0.0764193620954361
      ],
      "orientation_vector": [
        0.0,
        1.0
      ],
      "half_bracket_size": 0.5000070589092322,
      "bond": [
        29,
        33
      ],
      "fragment": "F3",
      "backbone": true,
      "suspended_anchor_atom": null,
      "suspended_reason": null,
      "source_label": "F3/fragments[0]",
      "marker_id": "0",
      "side": "left",
      "connection_group": "$a",
      "marker_type_index": 2
    },
    {
      "id": 3,
      "bracket_kind": "backbone",
      "pairing_id": "F3/fragments[0]",
      "group_id": "$a:2",
      "ru_midpoint": [
        18.054344006842385,
        -0.0764198621009945
      ],
      "bond_midpoint": [
        18.92033743554238,
        -0.07638131279910113
      ],
      "orientation_vector": [
        0.0,
        1.0
      ],
      "half_bracket_size": 0.5000070589092322,
      "bond": [
        34,
        41
      ],
      "fragment": "F3",
      "backbone": true,
      "suspended_anchor_atom": null,
      "suspended_reason": null,
      "source_label": "F3/fragments[0]",
      "marker_id": "9",
      "side": "right",
      "connection_group": "$a",
      "marker_type_index": 2
    },
    {
      "id": 4,
      "bracket_kind": "backbone",
      "pairing_id": "F2/fragments[0]",
      "group_id": "$a:2",
      "ru_midpoint": [
        7.817418449343655,
        -0.12653183023477987
      ],
      "bond_midpoint": [
        6.518438791659358,
        -0.07653015044798439
      ],
      "orientation_vector": [
        0.0,
        -1.0
      ],
      "half_bracket_size": 0.5000159978427487,
      "bond": [
        6,
        13
      ],
      "fragment": "F2",
      "backbone": true,
      "suspended_anchor_atom": null,
      "suspended_reason": null,
      "source_label": "F2/fragments[0]",
      "marker_id": "0",
      "side": "left",
      "connection_group": "$a",
      "marker_type_index": 2
    },
    {
      "id": 5,
      "bracket_kind": "backbone",
      "pairing_id": "F2/fragments[0]",
      "group_id": "$a:2",
      "ru_midpoint": [
        7.817418449343655,
        -0.12653183023477987
      ],
      "bond_midpoint": [
        9.98245398753586,
        -0.07653023045050533
      ],
      "orientation_vector": [
        0.0,
        -1.0
      ],
      "half_bracket_size": 0.5000159978427487,
      "bond": [
        17,
        18
      ],
      "fragment": "F2",
      "backbone": true,
      "suspended_anchor_atom": null,
      "suspended_reason": null,
      "source_label": "F2/fragments[0]",
      "marker_id": "6",
      "side": "right",
      "connection_group": "$a",
      "marker_type_index": 2
    },
    {
      "id": 6,
      "bracket_kind": "backbone",
      "pairing_id": "F2/fragments[1]",
      "group_id": "$a:2",
      "ru_midpoint": [
        11.714464533620559,
        -0.07647231153681211
      ],
      "bond_midpoint": [
        9.98245398753586,
        -0.07653023045050533
      ],
      "orientation_vector": [
        0.0,
        -1.0
      ],
      "half_bracket_size": 0.5000159978427487,
      "bond": [
        17,
        18
      ],
      "fragment": "F2",
      "backbone": true,
      "suspended_anchor_atom": null,
      "suspended_reason": null,
      "source_label": "F2/fragments[1]",
      "marker_id": "0",
      "side": "left",
      "connection_group": "$a",
      "marker_type_index": 2
    },
    {
      "id": 7,
      "bracket_kind": "backbone",
      "pairing_id": "F2/fragments[1]",
      "group_id": "$a:2",
      "ru_midpoint": [
        11.714464533620559,
        -0.07647231153681211
      ],
      "bond_midpoint": [
        13.446508515467738,
        -0.07647231153681244
      ],
      "orientation_vector": [
        0.0,
        -1.0
      ],
      "half_bracket_size": 0.5000159978427487,
      "bond": [
        22,
        23
      ],
      "fragment": "F2",
      "backbone": true,
      "suspended_anchor_atom": null,
      "suspended_reason": null,
      "source_label": "F2/fragments[1]",
      "marker_id": "6",
      "side": "right",
      "connection_group": "$a",
      "marker_type_index": 2
    },
    {
      "id": 8,
      "bracket_kind": "backbone",
      "pairing_id": "F2/fragments[2]",
      "group_id": "$a:2",
      "ru_midpoint": [
        14.312548138193893,
        -0.07647231153681211
      ],
      "bond_midpoint": [
        13.446508515467738,
        -0.07647231153681244
      ],
      "orientation_vector": [
        0.0,
        1.0
      ],
      "half_bracket_size": 0.5000159978427487,
      "bond": [
        22,
        23
      ],
      "fragment": "F2",
      "backbone": true,
      "suspended_anchor_atom": null,
      "suspended_reason": null,
      "source_label": "F2/fragments[2]",
      "marker_id": "0",
      "side": "left",
      "connection_group": "$a",
      "marker_type_index": 2
    },
    {
      "id": 9,
      "bracket_kind": "backbone",
      "pairing_id": "F2/fragments[2]",
      "group_id": "$a:2",
      "ru_midpoint": [
        14.312548138193893,
        -0.07647231153681211
      ],
      "bond_midpoint": [
        15.317454948420052,
        -0.07647231153681222
      ],
      "orientation_vector": [
        0.0,
        1.0
      ],
      "half_bracket_size": 0.5000159978427487,
      "bond": [
        24,
        28
      ],
      "fragment": "F2",
      "backbone": true,
      "suspended_anchor_atom": null,
      "suspended_reason": null,
      "source_label": "F2/fragments[2]",
      "marker_id": "6",
      "side": "right",
      "connection_group": "$a",
      "marker_type_index": 2
    },
    {
      "id": 10,
      "bracket_kind": "backbone",
      "pairing_id": "F2/fragments[3]",
      "group_id": "$a:2",
      "ru_midpoint": [
        16.755406556685447,
        0.006844381799081423
      ],
      "bond_midpoint": [
        15.317454948420052,
        -0.07647231153681222
      ],
      "orientation_vector": [
        0.0,
        1.0
      ],
      "half_bracket_size": 0.5000159978427487,
      "bond": [
        24,
        28
      ],
      "fragment": "F2",
      "backbone": true,
      "suspended_anchor_atom": null,
      "suspended_reason": null,
      "source_label": "F2/fragments[3]",
      "marker_id": "0",
      "side": "left",
      "connection_group": "$a",
      "marker_type_index": 2
    },
    {
      "id": 11,
      "bracket_kind": "backbone",
      "pairing_id": "F2/fragments[3]",
      "group_id": "$a:2",
      "ru_midpoint": [
        16.755406556685447,
        0.006844381799081423
      ],
      "bond_midpoint": [
        17.18837896724272,
        -0.0764193620954361
      ],
      "orientation_vector": [
        0.0,
        1.0
      ],
      "half_bracket_size": 0.5000159978427487,
      "bond": [
        29,
        33
      ],
      "fragment": "F2",
      "backbone": true,
      "suspended_anchor_atom": null,
      "suspended_reason": null,
      "source_label": "F2/fragments[3]",
      "marker_id": "6",
      "side": "right",
      "connection_group": "$a",
      "marker_type_index": 2
    },
    {
      "id": 12,
      "bracket_kind": "backbone",
      "pairing_id": "F2/connected",
      "group_id": "$overall",
      "ru_midpoint": [
        11.774019023403188,
        -0.07649713392839474
      ],
      "bond_midpoint": [
        6.518438791659358,
        -0.07653015044798439
      ],
      "orientation_vector": [
        0.0,
        -1.0
      ],
      "half_bracket_size": 1.5000406575386986,
      "bond": [
        6,
        13
      ],
      "fragment": "F2",
      "backbone": true,
      "suspended_anchor_atom": null,
      "suspended_reason": null,
      "source_label": "F2/connected",
      "marker_id": "connected-overall-left",
      "side": "left",
      "connection_group": "$overall",
      "marker_type_index": null
    },
    {
      "id": 13,
      "bracket_kind": "backbone",
      "pairing_id": "F2/connected",
      "group_id": "$overall",
      "ru_midpoint": [
        11.774019023403188,
        -0.07649713392839474
      ],
      "bond_midpoint": [
        17.18837896724272,
        -0.0764193620954361
      ],
      "orientation_vector": [
        0.0,
        -1.0
      ],
      "half_bracket_size": 1.5000406575386986,
      "bond": [
        29,
        33
      ],
      "fragment": "F2",
      "backbone": true,
      "suspended_anchor_atom": null,
      "suspended_reason": null,
      "source_label": "F2/connected",
      "marker_id": "connected-overall-right",
      "side": "right",
      "connection_group": "$overall",
      "marker_type_index": null
    },
    {
      "id": 14,
      "bracket_kind": "backbone",
      "pairing_id": "F1/fragments[0]",
      "group_id": "$a:2",
      "ru_midpoint": [
        5.652425638138241,
        -0.07653453991222159
      ],
      "bond_midpoint": [
        4.78646059853858,
        -0.07653403990666274
      ],
      "orientation_vector": [
        0.0,
        1.0
      ],
      "half_bracket_size": 0.5000070589092322,
      "bond": [
        2,
        5
      ],
      "fragment": "F1",
      "backbone": true,
      "suspended_anchor_atom": null,
      "suspended_reason": null,
      "source_label": "F1/fragments[0]",
      "marker_id": "0",
      "side": "left",
      "connection_group": "$a",
      "marker_type_index": 2
    },
    {
      "id": 15,
      "bracket_kind": "backbone",
      "pairing_id": "F1/fragments[0]",
      "group_id": "$a:2",
      "ru_midpoint": [
        5.652425638138241,
        -0.07653453991222159
      ],
      "bond_midpoint": [
        6.518438791659358,
        -0.07653015044798439
      ],
      "orientation_vector": [
        0.0,
        1.0
      ],
      "half_bracket_size": 0.5000070589092322,
      "bond": [
        6,
        13
      ],
      "fragment": "F1",
      "backbone": true,
      "suspended_anchor_atom": null,
      "suspended_reason": null,
      "source_label": "F1/fragments[0]",
      "marker_id": "9",
      "side": "right",
      "connection_group": "$a",
      "marker_type_index": 2
    }
  ]
}
