
     RDKit          2D

  0  0  0  0  0  0  0  0  0  0999 V3000
M  V30 BEGIN CTAB
M  V30 COUNTS 60 62 13 0 0
M  V30 BEGIN ATOM
M  V30 1 C 4.742585 -1.324246 0.000000 0
M  V30 2 C 5.608582 -0.824345 0.000000 0
M  V30 3 C 6.474586 -1.324246 0.000000 0
M  V30 4 C 6.474586 -2.324246 0.000000 0
M  V30 5 H 30.134896 -0.824252 0.000000 0
M  V30 6 C 7.340608 -0.824240 0.000000 0
M  V30 7 C 8.206567 -1.324247 0.000000 0
M  V30 8 C 8.206567 -2.324249 0.000000 0
M  V30 9 C 7.340365 -2.824182 0.000000 0
M  V30 10 C 7.340565 -3.824184 0.000000 0
M  V30 11 C 8.206367 -4.324253 0.000000 0
M  V30 12 C 9.072569 -3.824320 0.000000 0
M  V30 13 C 9.072369 -2.824318 0.000000 0
M  V30 14 C 9.072628 -0.824309 0.000000 0
M  V30 15 C 9.938633 -1.324209 0.000000 0
M  V30 16 C 10.804629 -0.824309 0.000000 0
M  V30 17 C 11.670633 -1.324209 0.000000 0
M  V30 18 C 12.536716 -0.824309 0.000000 0
M  V30 19 C 13.402721 -1.324209 0.000000 0
M  V30 20 C 13.402721 -2.324234 0.000000 0
M  V30 21 C 12.536568 -2.824078 0.000000 0
M  V30 22 C 14.268743 -0.824203 0.000000 0
M  V30 23 C 15.134702 -1.324210 0.000000 0
M  V30 24 C 15.134702 -2.324212 0.000000 0
M  V30 25 C 14.268500 -2.824145 0.000000 0
M  V30 26 C 14.268700 -3.824147 0.000000 0
M  V30 27 C 15.134502 -4.324216 0.000000 0
M  V30 28 C 16.000703 -3.824283 0.000000 0
M  V30 29 C 16.000503 -2.824281 0.000000 0
M  V30 30 C 16.000763 -0.824272 0.000000 0
M  V30 31 C 16.866767 -1.324172 0.000000 0
M  V30 32 C 17.732764 -0.824272 0.000000 0
M  V30 33 C 18.598768 -1.324172 0.000000 0
M  V30 34 C 19.464851 -0.824272 0.000000 0
M  V30 35 C 20.330855 -1.324172 0.000000 0
M  V30 36 C 20.330855 -2.324197 0.000000 0
M  V30 37 C 19.464703 -2.824041 0.000000 0
M  V30 38 C 21.196877 -0.824166 0.000000 0
M  V30 39 C 22.062836 -1.324173 0.000000 0
M  V30 40 C 22.062836 -2.324175 0.000000 0
M  V30 41 C 21.196634 -2.824109 0.000000 0
M  V30 42 C 21.196834 -3.824110 0.000000 0
M  V30 43 C 22.062636 -4.324180 0.000000 0
M  V30 44 C 22.928838 -3.824246 0.000000 0
M  V30 45 C 22.928638 -2.824245 0.000000 0
M  V30 46 C 22.928898 -0.824236 0.000000 0
M  V30 47 C 23.794902 -1.324136 0.000000 0
M  V30 48 C 24.660898 -0.824236 0.000000 0
M  V30 49 C 24.660898 0.175765 0.000000 0
M  V30 50 C 25.526903 -1.324136 0.000000 0
M  V30 51 C 26.392986 -0.824236 0.000000 0
M  V30 52 C 27.258982 -1.324136 0.000000 0
M  V30 53 C 27.258982 -2.324068 0.000000 0
M  V30 54 C 26.393095 -2.824158 0.000000 0
M  V30 55 C 28.125041 -2.824009 0.000000 0
M  V30 56 C 28.402799 -0.824236 0.000000 0
M  V30 57 C 29.268804 -1.324136 0.000000 0
M  V30 58 C 29.268804 -0.324211 0.000000 0
M  V30 59 C 29.268804 -2.324061 0.000000 0
M  V30 60 C 28.402911 -2.824155 0.000000 0
M  V30 END ATOM
M  V30 BEGIN BOND
M  V30 1 1 1 2
M  V30 2 1 2 3
M  V30 3 1 3 4
M  V30 4 1 6 7
M  V30 5 1 7 8
M  V30 6 1 8 9
M  V30 7 1 9 10
M  V30 8 1 10 11
M  V30 9 1 11 12
M  V30 10 1 12 13
M  V30 11 1 13 8
M  V30 12 1 3 6
M  V30 13 1 14 15
M  V30 14 1 15 16
M  V30 15 1 16 17
M  V30 16 1 18 19
M  V30 17 1 19 20
M  V30 18 1 20 21
M  V30 19 1 17 18
M  V30 20 1 7 14
M  V30 21 1 22 23
M  V30 22 1 23 24
M  V30 23 1 24 25
M  V30 24 1 25 26
M  V30 25 1 26 27
M  V30 26 1 27 28
M  V30 27 1 28 29
M  V30 28 1 29 24
M  V30 29 1 19 22
M  V30 30 1 30 31
M  V30 31 1 31 32
M  V30 32 1 32 33
M  V30 33 1 34 35
M  V30 34 1 35 36
M  V30 35 1 36 37
M  V30 36 1 33 34
M  V30 37 1 23 30
M  V30 38 1 38 39
M  V30 39 1 39 40
M  V30 40 1 40 41
M  V30 41 1 41 42
M  V30 42 1 42 43
M  V30 43 1 43 44
M  V30 44 1 44 45
M  V30 45 1 45 40
M  V30 46 1 35 38
M  V30 47 1 46 47
M  V30 48 1 47 48
M  V30 49 1 48 49
M  V30 50 1 48 50
M  V30 51 1 51 52
M  V30 52 1 52 53
M  V30 53 1 53 54
M  V30 54 1 53 55
M  V30 55 1 50 51
M  V30 56 1 56 57
M  V30 57 1 57 58
M  V30 58 1 57 59
M  V30 59 1 59 60
M  V30 60 1 52 56
M  V30 61 1 39 46
M  V30 62 1 5 57
M  V30 END BOND
M  V30 BEGIN SGROUP
M  V30 1 SRU 0 ATOMS=(4 39 46 50 51) CBONDS=(2 55 61) -
M  V30 BRKXYZ=(9 22.4959 -1.5741 0 22.4959 -0.5743 0 0 0 0) BRKXYZ=(9 25.9599 -
M  V30 -1.5741 0 25.9599 -0.5743 0 0 0 0)
M  V30 2 SRU 0 ATOMS=(4 50 51 52 56) CBONDS=(2 55 60) -
M  V30 BRKXYZ=(9 25.9599 -0.5743 0 25.9599 -1.5741 0 0 0 0) BRKXYZ=(9 27.8309 -
M  V30 -0.5743 0 27.8309 -1.5741 0 0 0 0)
M  V30 3 SRU 0 ATOMS=(4 5 52 56 57) CBONDS=(2 60 62) -
M  V30 BRKXYZ=(9 27.8309 -0.5743 0 27.8309 -1.5741 0 0 0 0) BRKXYZ=(9 29.7018 -
M  V30 -0.5743 0 29.7018 -1.5741 0 0 0 0)
M  V30 4 SRU 0 ATOMS=(4 5 39 46 57) CBONDS=(2 61 62) -
M  V30 BRKXYZ=(9 22.4959 -4.0741 0 22.4959 1.9257 0 0 0 0) BRKXYZ=(9 29.7018 --
M  V30 4.0741 0 29.7018 1.9257 0 0 0 0)
M  V30 5 SRU 0 ATOMS=(4 35 38 39 46) CBONDS=(2 46 61) -
M  V30 BRKXYZ=(9 20.7639 -0.5742 0 20.7639 -1.5742 0 0 0 0) BRKXYZ=(9 22.4959 -
M  V30 -0.5742 0 22.4959 -1.5742 0 0 0 0)
M  V30 6 SRU 0 ATOMS=(4 23 30 33 34) CBONDS=(2 36 37) -
M  V30 BRKXYZ=(9 15.5677 -0.5743 0 15.5677 -1.5741 0 0 0 0) BRKXYZ=(9 19.0318 -
M  V30 -0.5743 0 19.0318 -1.5741 0 0 0 0)
M  V30 7 SRU 0 ATOMS=(4 33 34 35 38) CBONDS=(2 36 46) -
M  V30 BRKXYZ=(9 19.0318 -0.5743 0 19.0318 -1.5741 0 0 0 0) BRKXYZ=(9 20.7639 -
M  V30 -0.5743 0 20.7639 -1.5741 0 0 0 0)
M  V30 8 SRU 0 ATOMS=(4 23 30 35 38) CBONDS=(2 37 46) -
M  V30 BRKXYZ=(9 15.5677 0.9255 0 15.5677 -3.0740 0 0 0 0) BRKXYZ=(9 20.7639 0-
M  V30 .9256 0 20.7639 -3.0739 0 0 0 0)
M  V30 9 SRU 0 ATOMS=(4 19 22 23 30) CBONDS=(2 29 37) -
M  V30 BRKXYZ=(9 13.8357 -0.5742 0 13.8357 -1.5742 0 0 0 0) BRKXYZ=(9 15.5677 -
M  V30 -0.5742 0 15.5677 -1.5742 0 0 0 0)
M  V30 10 SRU 0 ATOMS=(4 7 14 17 18) CBONDS=(2 19 20) -
M  V30 BRKXYZ=(9 8.6396 -0.5744 0 8.6396 -1.5742 0 0 0 0) BRKXYZ=(9 12.1037 -0-
M  V30 .5744 0 12.1037 -1.5742 0 0 0 0)
M  V30 11 SRU 0 ATOMS=(4 17 18 19 22) CBONDS=(2 19 29) -
M  V30 BRKXYZ=(9 12.1037 -0.5744 0 12.1037 -1.5742 0 0 0 0) BRKXYZ=(9 13.8357 -
M  V30 -0.5743 0 13.8357 -1.5741 0 0 0 0)
M  V30 12 SRU 0 ATOMS=(4 7 14 19 22) CBONDS=(2 20 29) -
M  V30 BRKXYZ=(9 8.6396 0.9255 0 8.6396 -3.0740 0 0 0 0) BRKXYZ=(9 13.8357 0.9-
M  V30 256 0 13.8357 -3.0740 0 0 0 0)
M  V30 13 SRU 0 ATOMS=(4 3 6 7 14) CBONDS=(2 12 20) -
M  V30 BRKXYZ=(9 6.9076 -0.5742 0 6.9076 -1.5742 0 0 0 0) BRKXYZ=(9 8.6396 -0.-
M  V30 5743 0 8.6396 -1.5743 0 0 0 0)
M  V30 END SGROUP
M  V30 END CTAB
M  END
>  <BIGSMILES_BRACKET_RECORDS_JSON>
{
  "records": [
    {
      "id": 0,
      "bracket_kind": "backbone",
      "pairing_id": "F6/fragments[0]",
      "group_id": "$a:2",
      "ru_midpoint": [
        23.794900359925766,
        -1.1241758009752962
      ],
      "bond_midpoint": [
        22.49586696280906,
        -1.0742045833402587
      ],
      "orientation_vector": [
        0.0,
        -1.0
      ],
      "half_bracket_size": 0.4999001600153621,
      "bond": [
        38,
        45
      ],
      "fragment": "F6",
      "backbone": true,
      "suspended_anchor_atom": null,
      "suspended_reason": null,
      "source_label": "F6/fragments[0]",
      "marker_id": "0",
      "side": "left",
      "connection_group": "$a",
      "marker_type_index": 2
    },
    {
      "id": 1,
      "bracket_kind": "backbone",
      "pairing_id": "F6/fragments[0]",
      "group_id": "$a:2",
      "ru_midpoint": [
        23.794900359925766,
        -1.1241758009752962
      ],
      "bond_midpoint": [
        25.959944075606778,
        -1.0741857849737602
      ],
      "orientation_vector": [
        0.0,
        -1.0
      ],
      "half_bracket_size": 0.4999001600153621,
      "bond": [
        49,
        50
      ],
      "fragment": "F6",
      "backbone": true,
      "suspended_anchor_atom": null,
      "suspended_reason": null,
      "source_label": "F6/fragments[0]",
      "marker_id": "6",
      "side": "right",
      "connection_group": "$a",
      "marker_type_index": 2
    },
    {
      "id": 2,
      "bracket_kind": "backbone",
      "pairing_id": "F6/fragments[1]",
      "group_id": "$a:2",
      "ru_midpoint": [
        26.825983698332934,
        -1.0741857849737602
      ],
      "bond_midpoint": [
        25.959944075606778,
        -1.0741857849737602
      ],
      "orientation_vector": [
        0.0,
        1.0
      ],
      "half_bracket_size": 0.4999001600153621,
      "bond": [
        49,
        50
      ],
      "fragment": "F6",
      "backbone": true,
      "suspended_anchor_atom": null,
      "suspended_reason": null,
      "source_label": "F6/fragments[1]",
      "marker_id": "0",
      "side": "left",
      "connection_group": "$a",
      "marker_type_index": 2
    },
    {
      "id": 3,
      "bracket_kind": "backbone",
      "pairing_id": "F6/fragments[1]",
      "group_id": "$a:2",
      "ru_midpoint": [
        26.825983698332934,
        -1.0741857849737602
      ],
      "bond_midpoint": [
        27.830890508559087,
        -1.0741857849737602
      ],
      "orientation_vector": [
        0.0,
        1.0
      ],
      "half_bracket_size": 0.4999001600153621,
      "bond": [
        51,
        55
      ],
      "fragment": "F6",
      "backbone": true,
      "suspended_anchor_atom": null,
      "suspended_reason": null,
      "source_label": "F6/fragments[1]",
      "marker_id": "6",
      "side": "right",
      "connection_group": "$a",
      "marker_type_index": 2
    },
    {
      "id": 4,
      "bracket_kind": "backbone",
      "pairing_id": "F6/fragments[2]",
      "group_id": "$a:2",
      "ru_midpoint": [
        29.268842116824484,
        -0.9908690916378664
      ],
      "bond_midpoint": [
        27.830890508559087,
        -1.0741857849737602
      ],
      "orientation_vector": [
        0.0,
        1.0
      ],
      "half_bracket_size": 0.4999001600153621,
      "bond": [
        51,
        55
      ],
      "fragment": "F6",
      "backbone": true,
      "suspended_anchor_atom": null,
      "suspended_reason": null,
      "source_label": "F6/fragments[2]",
      "marker_id": "0",
      "side": "left",
      "connection_group": "$a",
      "marker_type_index": 2
    },
    {
      "id": 5,
      "bracket_kind": "backbone",
      "pairing_id": "F6/fragments[2]",
      "group_id": "$a:2",
      "ru_midpoint": [
        29.268842116824484,
        -0.9908690916378664
      ],
      "bond_midpoint": [
        29.70184971026416,
        -1.0741937829924169
      ],
      "orientation_vector": [
        0.0,
        1.0
      ],
      "half_bracket_size": 0.4999001600153621,
      "bond": [
        4,
        56
      ],
      "fragment": "F6",
      "backbone": true,
      "suspended_anchor_atom": null,
      "suspended_reason": null,
      "source_label": "F6/fragments[2]",
      "marker_id": "6",
      "side": "right",
      "connection_group": "$a",
      "marker_type_index": 2
    },
    {
      "id": 6,
      "bracket_kind": "backbone",
      "pairing_id": "F6/connected",
      "group_id": "$overall",
      "ru_midpoint": [
        26.043299554676814,
        -1.0741857849737602
      ],
      "bond_midpoint": [
        22.49586696280906,
        -1.0742045833402587
      ],
      "orientation_vector": [
        0.0,
        -1.0
      ],
      "half_bracket_size": 2.9999227350143496,
      "bond": [
        38,
        45
      ],
      "fragment": "F6",
      "backbone": true,
      "suspended_anchor_atom": null,
      "suspended_reason": null,
      "source_label": "F6/connected",
      "marker_id": "connected-overall-left",
      "side": "left",
      "connection_group": "$overall",
      "marker_type_index": null
    },
    {
      "id": 7,
      "bracket_kind": "backbone",
      "pairing_id": "F6/connected",
      "group_id": "$overall",
      "ru_midpoint": [
        26.043299554676814,
        -1.0741857849737602
      ],
      "bond_midpoint": [
        29.70184971026416,
        -1.0741937829924169
      ],
      "orientation_vector": [
        0.0,
        -1.0
      ],
      "half_bracket_size": 2.9999227350143496,
      "bond": [
        4,
        56
      ],
      "fragment": "F6",
      "backbone": true,
      "suspended_anchor_atom": null,
      "suspended_reason": null,
      "source_label": "F6/connected",
      "marker_id": "connected-overall-right",
      "side": "right",
      "connection_group": "$overall",
      "marker_type_index": null
    },
    {
      "id": 8,
      "bracket_kind": "backbone",
      "pairing_id": "F5/fragments[0]",
      "group_id": "$a:2",
      "ru_midpoint": [
        21.629831270613547,
        -1.0741699322598224
      ],
      "bond_midpoint": [
        20.763866231013886,
        -1.074169432254264
      ],
      "orientation_vector": [
        0.0,
        1.0
      ],
      "half_bracket_size": 0.5000070589092322,
      "bond": [
        34,
        37
      ],
      "fragment": "F5",
      "backbone": true,
      "suspended_anchor_atom": null,
      "suspended_reason": null,
      "source_label": "F5/fragments[0]",
      "marker_id": "0",
      "side": "left",
      "connection_group": "$a",
      "marker_type_index": 2
    },
    {
      "id": 9,
      "bracket_kind": "backbone",
      "pairing_id": "F5/fragments[0]",
      "group_id": "$a:2",
      "ru_midpoint": [
        21.629831270613547,
        -1.0741699322598224
      ],
      "bond_midpoint": [
        22.49586696280906,
        -1.0742045833402587
      ],
      "orientation_vector": [
        0.0,
        1.0
      ],
      "half_bracket_size": 0.5000070589092322,
      "bond": [
        38,
        45
      ],
      "fragment": "F5",
      "backbone": true,
      "suspended_anchor_atom": null,
      "suspended_reason": null,
      "source_label": "F5/fragments[0]",
      "marker_id": "9",
      "side": "right",
      "connection_group": "$a",
      "marker_type_index": 2
    },
    {
      "id": 10,
      "bracket_kind": "backbone",
      "pairing_id": "F4/fragments[0]",
      "group_id": "$a:2",
      "ru_midpoint": [
        17.29976541784404,
        -1.0742223816956404
      ],
      "bond_midpoint": [
        15.567732286893504,
        -1.0742411800621394
      ],
      "orientation_vector": [
        0.0,
        1.0
      ],
      "half_bracket_size": 0.49990016001536275,
      "bond": [
        22,
        29
      ],
      "fragment": "F4",
      "backbone": true,
      "suspended_anchor_atom": null,
      "suspended_reason": null,
      "source_label": "F4/fragments[0]",
      "marker_id": "0",
      "side": "left",
      "connection_group": "$a",
      "marker_type_index": 2
    },
    {
      "id": 11,
      "bracket_kind": "backbone",
      "pairing_id": "F4/fragments[0]",
      "group_id": "$a:2",
      "ru_midpoint": [
        17.29976541784404,
        -1.0742223816956404
      ],
      "bond_midpoint": [
        19.03180939969122,
        -1.0742223816956402
      ],
      "orientation_vector": [
        0.0,
        1.0
      ],
      "half_bracket_size": 0.49990016001536275,
      "bond": [
        32,
        33
      ],
      "fragment": "F4",
      "backbone": true,
      "suspended_anchor_atom": null,
      "suspended_reason": null,
      "source_label": "F4/fragments[0]",
      "marker_id": "5",
      "side": "right",
      "connection_group": "$a",
      "marker_type_index": 2
    },
    {
      "id": 12,
      "bracket_kind": "backbone",
      "pairing_id": "F4/fragments[1]",
      "group_id": "$a:2",
      "ru_midpoint": [
        19.8978748990121,
        -1.0742223816956404
      ],
      "bond_midpoint": [
        19.03180939969122,
        -1.0742223816956402
      ],
      "orientation_vector": [
        0.0,
        1.0
      ],
      "half_bracket_size": 0.49990016001536275,
      "bond": [
        32,
        33
      ],
      "fragment": "F4",
      "backbone": true,
      "suspended_anchor_atom": null,
      "suspended_reason": null,
      "source_label": "F4/fragments[1]",
      "marker_id": "0",
      "side": "left",
      "connection_group": "$a",
      "marker_type_index": 2
    },
    {
      "id": 13,
      "bracket_kind": "backbone",
      "pairing_id": "F4/fragments[1]",
      "group_id": "$a:2",
      "ru_midpoint": [
        19.8978748990121,
        -1.0742223816956404
      ],
      "bond_midpoint": [
        20.763866231013886,
        -1.074169432254264
      ],
      "orientation_vector": [
        0.0,
        1.0
      ],
      "half_bracket_size": 0.49990016001536275,
      "bond": [
        34,
        37
      ],
      "fragment": "F4",
      "backbone": true,
      "suspended_anchor_atom": null,
      "suspended_reason": null,
      "source_label": "F4/fragments[1]",
      "marker_id": "5",
      "side": "right",
      "connection_group": "$a",
      "marker_type_index": 2
    },
    {
      "id": 14,
      "bracket_kind": "backbone",
      "pairing_id": "F4/connected",
      "group_id": "$overall",
      "ru_midpoint": [
        18.165809162966273,
        -1.0742223816956404
      ],
      "bond_midpoint": [
        15.567732286893504,
        -1.0742411800621394
      ],
      "orientation_vector": [
        0.0,
        1.0
      ],
      "half_bracket_size": 1.9997688137103973,
      "bond": [
        22,
        29
      ],
      "fragment": "F4",
      "backbone": true,
      "suspended_anchor_atom": null,
      "suspended_reason": null,
      "source_label": "F4/connected",
      "marker_id": "connected-overall-left",
      "side": "left",
      "connection_group": "$overall",
      "marker_type_index": null
    },
    {
      "id": 15,
      "bracket_kind": "backbone",
      "pairing_id": "F4/connected",
      "group_id": "$overall",
      "ru_midpoint": [
        18.165809162966273,
        -1.0742223816956404
      ],
      "bond_midpoint": [
        20.763866231013886,
        -1.074169432254264
      ],
      "orientation_vector": [
        0.0,
        1.0
      ],
      "half_bracket_size": 1.9997688137103973,
      "bond": [
        34,
        37
      ],
      "fragment": "F4",
      "backbone": true,
      "suspended_anchor_atom": null,
      "suspended_reason": null,
      "source_label": "F4/connected",
      "marker_id": "connected-overall-right",
      "side": "right",
      "connection_group": "$overall",
      "marker_type_index": null
    },
    {
      "id": 16,
      "bracket_kind": "backbone",
      "pairing_id": "F3/fragments[0]",
      "group_id": "$a:2",
      "ru_midpoint": [
        14.701696594697992,
        -1.0742065289817029
      ],
      "bond_midpoint": [
        13.835731555098329,
        -1.0742060289761446
      ],
      "orientation_vector": [
        0.0,
        1.0
      ],
      "half_bracket_size": 0.5000070589092322,
      "bond": [
        18,
        21
      ],
      "fragment": "F3",
      "backbone": true,
      "suspended_anchor_atom": null,
      "suspended_reason": null,
      "source_label": "F3/fragments[0]",
      "marker_id": "0",
      "side": "left",
      "connection_group": "$a",
      "marker_type_index": 2
    },
    {
      "id": 17,
      "bracket_kind": "backbone",
      "pairing_id": "F3/fragments[0]",
      "group_id": "$a:2",
      "ru_midpoint": [
        14.701696594697992,
        -1.0742065289817029
      ],
      "bond_midpoint": [
        15.567732286893504,
        -1.0742411800621394
      ],
      "orientation_vector": [
        0.0,
        1.0
      ],
      "half_bracket_size": 0.5000070589092322,
      "bond": [
        22,
        29
      ],
      "fragment": "F3",
      "backbone": true,
      "suspended_anchor_atom": null,
      "suspended_reason": null,
      "source_label": "F3/fragments[0]",
      "marker_id": "9",
      "side": "right",
      "connection_group": "$a",
      "marker_type_index": 2
    },
    {
      "id": 18,
      "bracket_kind": "backbone",
      "pairing_id": "F2/fragments[0]",
      "group_id": "$a:2",
      "ru_midpoint": [
        10.371630741928481,
        -1.0742589784175214
      ],
      "bond_midpoint": [
        8.639597610977946,
        -1.0742777767840204
      ],
      "orientation_vector": [
        0.0,
        1.0
      ],
      "half_bracket_size": 0.49990016001536275,
      "bond": [
        6,
        13
      ],
      "fragment": "F2",
      "backbone": true,
      "suspended_anchor_atom": null,
      "suspended_reason": null,
      "source_label": "F2/fragments[0]",
      "marker_id": "0",
      "side": "left",
      "connection_group": "$a",
      "marker_type_index": 2
    },
    {
      "id": 19,
      "bracket_kind": "backbone",
      "pairing_id": "F2/fragments[0]",
      "group_id": "$a:2",
      "ru_midpoint": [
        10.371630741928481,
        -1.0742589784175214
      ],
      "bond_midpoint": [
        12.10367472377566,
        -1.074258978417521
      ],
      "orientation_vector": [
        0.0,
        1.0
      ],
      "half_bracket_size": 0.49990016001536275,
      "bond": [
        16,
        17
      ],
      "fragment": "F2",
      "backbone": true,
      "suspended_anchor_atom": null,
      "suspended_reason": null,
      "source_label": "F2/fragments[0]",
      "marker_id": "5",
      "side": "right",
      "connection_group": "$a",
      "marker_type_index": 2
    },
    {
      "id": 20,
      "bracket_kind": "backbone",
      "pairing_id": "F2/fragments[1]",
      "group_id": "$a:2",
      "ru_midpoint": [
        12.96974022309654,
        -1.074258978417521
      ],
      "bond_midpoint": [
        12.10367472377566,
        -1.074258978417521
      ],
      "orientation_vector": [
        0.0,
        1.0
      ],
      "half_bracket_size": 0.49990016001536275,
      "bond": [
        16,
        17
      ],
      "fragment": "F2",
      "backbone": true,
      "suspended_anchor_atom": null,
      "suspended_reason": null,
      "source_label": "F2/fragments[1]",
      "marker_id": "0",
      "side": "left",
      "connection_group": "$a",
      "marker_type_index": 2
    },
    {
      "id": 21,
      "bracket_kind": "backbone",
      "pairing_id": "F2/fragments[1]",
      "group_id": "$a:2",
      "ru_midpoint": [
        12.96974022309654,
        -1.074258978417521
      ],
      "bond_midpoint": [
        13.835731555098329,
        -1.0742060289761446
      ],
      "orientation_vector": [
        0.0,
        1.0
      ],
      "half_bracket_size": 0.49990016001536275,
      "bond": [
        18,
        21
      ],
      "fragment": "F2",
      "backbone": true,
      "suspended_anchor_atom": null,
      "suspended_reason": null,
      "source_label": "F2/fragments[1]",
      "marker_id": "5",
      "side": "right",
      "connection_group": "$a",
      "marker_type_index": 2
    },
    {
      "id": 22,
      "bracket_kind": "backbone",
      "pairing_id": "F2/connected",
      "group_id": "$overall",
      "ru_midpoint": [
        11.237674487050715,
        -1.0742589784175214
      ],
      "bond_midpoint": [
        8.639597610977946,
        -1.0742777767840204
      ],
      "orientation_vector": [
        0.0,
        1.0
      ],
      "half_bracket_size": 1.9997688137103973,
      "bond": [
        6,
        13
      ],
      "fragment": "F2",
      "backbone": true,
      "suspended_anchor_atom": null,
      "suspended_reason": null,
      "source_label": "F2/connected",
      "marker_id": "connected-overall-left",
      "side": "left",
      "connection_group": "$overall",
      "marker_type_index": null
    },
    {
      "id": 23,
      "bracket_kind": "backbone",
      "pairing_id": "F2/connected",
      "group_id": "$overall",
      "ru_midpoint": [
        11.237674487050715,
        -1.0742589784175214
      ],
      "bond_midpoint": [
        13.835731555098329,
        -1.0742060289761446
      ],
      "orientation_vector": [
        0.0,
        1.0
      ],
      "half_bracket_size": 1.9997688137103973,
      "bond": [
        18,
        21
      ],
      "fragment": "F2",
      "backbone": true,
      "suspended_anchor_atom": null,
      "suspended_reason": null,
      "source_label": "F2/connected",
      "marker_id": "connected-overall-right",
      "side": "right",
      "connection_group": "$overall",
      "marker_type_index": null
    },
    {
      "id": 24,
      "bracket_kind": "backbone",
      "pairing_id": "F1/fragments[0]",
      "group_id": "$a:2",
      "ru_midpoint": [
        7.7735619187824305,
        -1.0742431257035843
      ],
      "bond_midpoint": [
        6.90759687918277,
        -1.0742426256980255
      ],
      "orientation_vector": [
        0.0,
        1.0
      ],
      "half_bracket_size": 0.5000070589092322,
      "bond": [
        2,
        5
      ],
      "fragment": "F1",
      "backbone": true,
      "suspended_anchor_atom": null,
      "suspended_reason": null,
      "source_label": "F1/fragments[0]",
      "marker_id": "0",
      "side": "left",
      "connection_group": "$a",
      "marker_type_index": 2
    },
    {
      "id": 25,
      "bracket_kind": "backbone",
      "pairing_id": "F1/fragments[0]",
      "group_id": "$a:2",
      "ru_midpoint": [
        7.7735619187824305,
        -1.0742431257035843
      ],
      "bond_midpoint": [
        8.639597610977946,
        -1.0742777767840204
      ],
      "orientation_vector": [
        0.0,
        1.0
      ],
      "half_bracket_size": 0.5000070589092322,
      "bond": [
        6,
        13
      ],
      "fragment": "F1",
      "backbone": true,
      "suspended_anchor_atom": null,
      "suspended_reason": null,
      "source_label": "F1/fragments[0]",
      "marker_id": "9",
      "side": "right",
      "connection_group": "$a",
      "marker_type_index": 2
    }
  ]
}
