
     RDKit          2D

  0  0  0  0  0  0  0  0  0  0999 V3000
M  V30 BEGIN CTAB
M  V30 COUNTS 38 40 3 0 0
M  V30 BEGIN ATOM
M  V30 1 C -7.286783 -1.605307 0.000000 0
M  V30 2 O -6.420786 -1.105407 0.000000 0
M  V30 3 C -2.956979 -1.105354 0.000000 0
M  V30 4 O -2.956981 -0.105353 0.000000 0
M  V30 5 C -2.090859 -1.605254 0.000000 0
M  V30 6 C -2.090859 -2.605254 0.000000 0
M  V30 7 C -2.956859 -3.105161 0.000000 0
M  V30 8 C -2.956859 -4.105362 0.000000 0
M  V30 9 C -2.090859 -4.605055 0.000000 0
M  V30 10 C -1.224859 -4.105347 0.000000 0
M  V30 11 C -1.224858 -3.105147 0.000000 0
M  V30 12 S 3.256561 -1.105170 0.000000 0
M  V30 13 C 4.122565 -1.605071 0.000000 0
M  V30 14 S 4.122565 -2.605071 0.000000 0
M  V30 15 C 5.122565 -1.605071 0.000000 0
M  V30 16 C 5.622541 -2.471055 0.000000 0
M  V30 17 C 6.622494 -2.471055 0.000000 0
M  V30 18 C 7.122470 -1.605071 0.000000 0
M  V30 19 C 6.622494 -0.739086 0.000000 0
M  V30 20 C 5.622541 -0.739086 0.000000 0
M  V30 21 C -5.554810 -1.605491 0.000000 0
M  V30 22 C -4.688814 -1.105391 0.000000 0
M  V30 23 O -3.822925 -1.605491 0.000000 0
M  V30 24 C -0.719384 -1.105219 0.000000 0
M  V30 25 C 0.146669 -1.605220 0.000000 0
M  V30 26 C 0.146669 -0.605195 0.000000 0
M  V30 27 C 0.146669 -2.605252 0.000000 0
M  V30 28 O -0.719304 -3.105343 0.000000 0
M  V30 29 O 1.012815 -3.105092 0.000000 0
M  V30 30 C 1.012815 -4.105124 0.000000 0
M  V30 31 C 1.524605 -1.105214 0.000000 0
M  V30 32 C 2.390564 -1.605221 0.000000 0
M  V30 33 C 2.390564 -2.605223 0.000000 0
M  V30 34 C 1.524363 -3.105156 0.000000 0
M  V30 35 C 1.524563 -4.105158 0.000000 0
M  V30 36 C 2.390364 -4.605227 0.000000 0
M  V30 37 C 3.256566 -4.105294 0.000000 0
M  V30 38 C 3.256366 -3.105292 0.000000 0
M  V30 END ATOM
M  V30 BEGIN BOND
M  V30 1 1 1 2
M  V30 2 2 3 4
M  V30 3 1 3 5
M  V30 4 1 5 6
M  V30 5 2 6 7
M  V30 6 1 7 8
M  V30 7 2 8 9
M  V30 8 1 9 10
M  V30 9 2 10 11
M  V30 10 1 12 13
M  V30 11 2 13 14
M  V30 12 1 13 15
M  V30 13 2 15 16
M  V30 14 1 16 17
M  V30 15 2 17 18
M  V30 16 1 18 19
M  V30 17 2 19 20
M  V30 18 1 11 6
M  V30 19 1 20 15
M  V30 20 1 21 22
M  V30 21 1 22 23
M  V30 22 1 2 21
M  V30 23 1 3 23
M  V30 24 1 24 25
M  V30 25 1 25 26
M  V30 26 1 25 27
M  V30 27 2 27 28
M  V30 28 1 27 29
M  V30 29 1 29 30
M  V30 30 1 5 24
M  V30 31 1 31 32
M  V30 32 1 32 33
M  V30 33 2 33 34
M  V30 34 1 34 35
M  V30 35 2 35 36
M  V30 36 1 36 37
M  V30 37 2 37 38
M  V30 38 1 38 33
M  V30 39 1 25 31
M  V30 40 1 12 32
M  V30 END BOND
M  V30 BEGIN SGROUP
M  V30 1 SRU 0 ATOMS=(4 12 25 31 32) CBONDS=(2 39 40) -
M  V30 BRKXYZ=(9 0.8356 -0.8552 0 0.8356 -1.8552 0 0 0 0) BRKXYZ=(9 2.8236 -0.-
M  V30 8552 0 2.8236 -1.8552 0 0 0 0)
M  V30 2 SRU 0 ATOMS=(4 5 24 25 31) CBONDS=(2 30 39) -
M  V30 BRKXYZ=(9 -1.4051 -0.8552 0 -1.4051 -1.8552 0 0 0 0) BRKXYZ=(9 0.8356 --
M  V30 0.8552 0 0.8356 -1.8552 0 0 0 0)
M  V30 3 SRU 0 ATOMS=(4 2 3 21 23) CBONDS=(2 22 23) -
M  V30 BRKXYZ=(9 -5.9878 -0.8553 0 -5.9878 -1.8555 0 0 0 0) BRKXYZ=(9 -3.3900 -
M  V30 -0.8553 0 -3.3900 -1.8555 0 0 0 0)
M  V30 END SGROUP
M  V30 END CTAB
M  END
>  <BIGSMILES_BRACKET_RECORDS_JSON>
{
  "records": [
    {
      "id": 0,
      "bracket_kind": "backbone",
      "pairing_id": "F3/fragments[0]",
      "group_id": "$a:2",
      "ru_midpoint": [
        1.957584850043512,
        -1.3552170780617934
      ],
      "bond_midpoint": [
        0.8356373107235622,
        -1.3552165780562344
      ],
      "orientation_vector": [
        0.0,
        1.0
      ],
      "half_bracket_size": 0.5000070589092322,
      "bond": [
        24,
        30
      ],
      "fragment": "F3",
      "backbone": true,
      "suspended_anchor_atom": null,
      "suspended_reason": null,
      "source_label": "F3/fragments[0]",
      "marker_id": "0",
      "side": "left",
      "connection_group": "$a",
      "marker_type_index": 2
    },
    {
      "id": 1,
      "bracket_kind": "backbone",
      "pairing_id": "F3/fragments[0]",
      "group_id": "$a:2",
      "ru_midpoint": [
        1.957584850043512,
        -1.3552170780617934
      ],
      "bond_midpoint": [
        2.82356262190973,
        -1.3551955199693353
      ],
      "orientation_vector": [
        0.0,
        1.0
      ],
      "half_bracket_size": 0.5000070589092322,
      "bond": [
        11,
        31
      ],
      "fragment": "F3",
      "backbone": true,
      "suspended_anchor_atom": null,
      "suspended_reason": null,
      "source_label": "F3/fragments[0]",
      "marker_id": "9",
      "side": "right",
      "connection_group": "$a",
      "marker_type_index": 2
    },
    {
      "id": 2,
      "bracket_kind": "backbone",
      "pairing_id": "F2/fragments[0]",
      "group_id": "$a:2",
      "ru_midpoint": [
        -0.2863575671092907,
        -1.3552195289406939
      ],
      "bond_midpoint": [
        -1.4051216557789064,
        -1.355236565687393
      ],
      "orientation_vector": [
        0.0,
        1.0
      ],
      "half_bracket_size": 0.500000157129195,
      "bond": [
        4,
        23
      ],
      "fragment": "F2",
      "backbone": true,
      "suspended_anchor_atom": null,
      "suspended_reason": null,
      "source_label": "F2/fragments[0]",
      "marker_id": "0",
      "side": "left",
      "connection_group": "$a",
      "marker_type_index": 2
    },
    {
      "id": 3,
      "bracket_kind": "backbone",
      "pairing_id": "F2/fragments[0]",
      "group_id": "$a:2",
      "ru_midpoint": [
        -0.2863575671092907,
        -1.3552195289406939
      ],
      "bond_midpoint": [
        0.8356373107235622,
        -1.3552165780562344
      ],
      "orientation_vector": [
        0.0,
        1.0
      ],
      "half_bracket_size": 0.500000157129195,
      "bond": [
        24,
        30
      ],
      "fragment": "F2",
      "backbone": true,
      "suspended_anchor_atom": null,
      "suspended_reason": null,
      "source_label": "F2/fragments[0]",
      "marker_id": "8",
      "side": "right",
      "connection_group": "$a",
      "marker_type_index": 2
    },
    {
      "id": 4,
      "bracket_kind": "backbone",
      "pairing_id": "F1/fragments[0]",
      "group_id": "<1:3",
      "ru_midpoint": [
        -4.688849283963668,
        -1.438791239391367
      ],
      "bond_midpoint": [
        -5.9877980118263885,
        -1.3554492139515326
      ],
      "orientation_vector": [
        0.0,
        1.0
      ],
      "half_bracket_size": 0.5001001599500253,
      "bond": [
        1,
        20
      ],
      "fragment": "F1",
      "backbone": true,
      "suspended_anchor_atom": null,
      "suspended_reason": null,
      "source_label": "F1/fragments[0]",
      "marker_id": "0",
      "side": "left",
      "connection_group": "<1",
      "marker_type_index": 3
    },
    {
      "id": 5,
      "bracket_kind": "backbone",
      "pairing_id": "F1/fragments[0]",
      "group_id": ">1:4",
      "ru_midpoint": [
        -4.688849283963668,
        -1.438791239391367
      ],
      "bond_midpoint": [
        -3.3899517599288784,
        -1.3554224068456848
      ],
      "orientation_vector": [
        0.0,
        1.0
      ],
      "half_bracket_size": 0.5001001599500253,
      "bond": [
        2,
        22
      ],
      "fragment": "F1",
      "backbone": true,
      "suspended_anchor_atom": null,
      "suspended_reason": null,
      "source_label": "F1/fragments[0]",
      "marker_id": "4",
      "side": "right",
      "connection_group": ">1",
      "marker_type_index": 4
    }
  ]
}
