
     RDKit          2D

  0  0  0  0  0  0  0  0  0  0999 V3000
M  V30 BEGIN CTAB
M  V30 COUNTS 30 31 3 0 0
M  V30 BEGIN ATOM
M  V30 1 H -9.195837 -0.631594 0.000000 0
M  V30 2 H 9.195503 -0.631648 0.000000 0
M  V30 3 N 5.731956 -0.631648 0.000000 0
M  V30 4 C 6.597845 -0.131548 0.000000 0
M  V30 5 C 7.463725 -0.631648 0.000000 0
M  V30 6 N 8.329614 -0.131548 0.000000 0
M  V30 7 C -8.329833 -0.131694 0.000000 0
M  V30 8 O -8.329835 0.868306 0.000000 0
M  V30 9 N -7.463828 -0.631594 0.000000 0
M  V30 10 C -6.463828 -0.631594 0.000000 0
M  V30 11 C -5.963844 0.234404 0.000000 0
M  V30 12 C -4.963875 0.234404 0.000000 0
M  V30 13 C -5.963844 -1.497593 0.000000 0
M  V30 14 C -4.963875 -1.497593 0.000000 0
M  V30 15 C -4.463890 -0.631594 0.000000 0
M  V30 16 C -3.463890 -0.631594 0.000000 0
M  V30 17 C -2.463890 -0.631594 0.000000 0
M  V30 18 C -1.963881 0.234448 0.000000 0
M  V30 19 C -0.963862 0.234448 0.000000 0
M  V30 20 C -1.963881 -1.497636 0.000000 0
M  V30 21 C -0.963862 -1.497636 0.000000 0
M  V30 22 C -0.463852 -0.631594 0.000000 0
M  V30 23 N 0.536148 -0.631594 0.000000 0
M  V30 24 C 1.402144 -0.131494 0.000000 0
M  V30 25 O 1.402142 0.868506 0.000000 0
M  V30 26 O 2.268148 -0.631594 0.000000 0
M  V30 27 C 3.134125 -0.131510 0.000000 0
M  V30 28 C 4.000121 -0.631610 0.000000 0
M  V30 29 C 4.000121 -1.631610 0.000000 0
M  V30 30 O 4.866010 -0.131510 0.000000 0
M  V30 END ATOM
M  V30 BEGIN BOND
M  V30 1 1 3 4
M  V30 2 1 4 5
M  V30 3 1 5 6
M  V30 4 2 7 8
M  V30 5 1 7 9
M  V30 6 1 9 10
M  V30 7 2 10 11
M  V30 8 1 11 12
M  V30 9 1 10 13
M  V30 10 2 13 14
M  V30 11 1 14 15
M  V30 12 1 15 16
M  V30 13 1 16 17
M  V30 14 2 17 18
M  V30 15 1 18 19
M  V30 16 1 17 20
M  V30 17 2 20 21
M  V30 18 1 21 22
M  V30 19 1 22 23
M  V30 20 1 23 24
M  V30 21 2 24 25
M  V30 22 1 24 26
M  V30 23 2 15 12
M  V30 24 2 22 19
M  V30 25 1 27 28
M  V30 26 1 28 29
M  V30 27 1 28 30
M  V30 28 1 26 27
M  V30 29 1 3 30
M  V30 30 1 1 7
M  V30 31 1 2 6
M  V30 END BOND
M  V30 BEGIN SGROUP
M  V30 1 SRU 0 ATOMS=(4 3 26 27 30) CBONDS=(2 28 29) -
M  V30 BRKXYZ=(9 2.7011 0.1185 0 2.7011 -0.8817 0 0 0 0) BRKXYZ=(9 5.2990 0.11-
M  V30 85 0 5.2990 -0.8817 0 0 0 0)
M  V30 2 SRU 0 ATOMS=(4 1 3 7 30) CBONDS=(2 29 30) -
M  V30 BRKXYZ=(9 -8.7628 1.3504 0 -8.7628 -2.1137 0 0 0 0) BRKXYZ=(9 5.2990 1.-
M  V30 3505 0 5.2990 -2.1137 0 0 0 0)
M  V30 3 SRU 0 ATOMS=(4 1 2 6 7) CBONDS=(2 30 31) -
M  V30 BRKXYZ=(9 -8.7628 1.5236 0 -8.7628 -2.2869 0 0 0 0) BRKXYZ=(9 8.7626 1.-
M  V30 5237 0 8.7626 -2.2869 0 0 0 0)
M  V30 END SGROUP
M  V30 END CTAB
M  END
>  <BIGSMILES_BRACKET_RECORDS_JSON>
{
  "records": [
    {
      "id": 0,
      "bracket_kind": "backbone",
      "pairing_id": "F3/fragments[0]",
      "group_id": ">1:4",
      "ru_midpoint": [
        4.000053496889224,
        -0.43157005684545435
      ],
      "bond_midpoint": [
        2.701136672604278,
        -0.38155203963194895
      ],
      "orientation_vector": [
        0.0,
        1.0
      ],
      "half_bracket_size": 0.5001001599500248,
      "bond": [
        25,
        26
      ],
      "fragment": "F3",
      "backbone": true,
      "suspended_anchor_atom": null,
      "suspended_reason": null,
      "source_label": "F3/fragments[0]",
      "marker_id": "0",
      "side": "left",
      "connection_group": ">1",
      "marker_type_index": 4
    },
    {
      "id": 1,
      "bracket_kind": "backbone",
      "pairing_id": "F3/fragments[0]",
      "group_id": "<1:3",
      "ru_midpoint": [
        4.000053496889224,
        -0.43157005684545435
      ],
      "bond_midpoint": [
        5.298982924501786,
        -0.3815788467377971
      ],
      "orientation_vector": [
        0.0,
        1.0
      ],
      "half_bracket_size": 0.5001001599500248,
      "bond": [
        2,
        29
      ],
      "fragment": "F3",
      "backbone": true,
      "suspended_anchor_atom": null,
      "suspended_reason": null,
      "source_label": "F3/fragments[0]",
      "marker_id": "5",
      "side": "right",
      "connection_group": "<1",
      "marker_type_index": 3
    },
    {
      "id": 2,
      "bracket_kind": "backbone",
      "pairing_id": "F2/mergedFragments[0]/subMolblock/native-outer",
      "group_id": "$overall",
      "ru_midpoint": [
        -2.128101957442264,
        -0.6098362531353176
      ],
      "bond_midpoint": [
        -8.762834766007341,
        -0.3816440383807763
      ],
      "orientation_vector": [
        0.0,
        1.0
      ],
      "half_bracket_size": 1.7320837019772253,
      "bond": [
        0,
        6
      ],
      "fragment": "F2",
      "backbone": true,
      "suspended_anchor_atom": null,
      "suspended_reason": null,
      "source_label": "F2/mergedFragments[0]/subMolblock",
      "marker_id": "native-outer-left",
      "side": "left",
      "connection_group": "$overall",
      "marker_type_index": null
    },
    {
      "id": 3,
      "bracket_kind": "backbone",
      "pairing_id": "F2/mergedFragments[0]/subMolblock/native-outer",
      "group_id": "$overall",
      "ru_midpoint": [
        -2.128101957442264,
        -0.6098362531353176
      ],
      "bond_midpoint": [
        5.298982924501786,
        -0.3815788467377971
      ],
      "orientation_vector": [
        0.0,
        1.0
      ],
      "half_bracket_size": 1.7320837019772253,
      "bond": [
        2,
        29
      ],
      "fragment": "F2",
      "backbone": true,
      "suspended_anchor_atom": null,
      "suspended_reason": null,
      "source_label": "F2/mergedFragments[0]/subMolblock",
      "marker_id": "native-outer-right",
      "side": "right",
      "connection_group": "$overall",
      "marker_type_index": null
    },
    {
      "id": 4,
      "bracket_kind": "backbone",
      "pairing_id": "F1/mergedFragments[0]/subMolblock/native-outer",
      "group_id": "$overall",
      "ru_midpoint": [
        0.44436067700279747,
        -0.2982570372304836
      ],
      "bond_midpoint": [
        -8.762834766007341,
        -0.3816440383807763
      ],
      "orientation_vector": [
        0.0,
        1.0
      ],
      "half_bracket_size": 1.905292072174948,
      "bond": [
        0,
        6
      ],
      "fragment": "F1",
      "backbone": true,
      "suspended_anchor_atom": null,
      "suspended_reason": null,
      "source_label": "F1/mergedFragments[0]/subMolblock",
      "marker_id": "native-outer-left",
      "side": "left",
      "connection_group": "$overall",
      "marker_type_index": null
    },
    {
      "id": 5,
      "bracket_kind": "backbone",
      "pairing_id": "F1/mergedFragments[0]/subMolblock/native-outer",
      "group_id": "$overall",
      "ru_midpoint": [
        0.44436067700279747,
        -0.2982570372304836
      ],
      "bond_midpoint": [
        8.762558769275017,
        -0.381597652625142
      ],
      "orientation_vector": [
        0.0,
        1.0
      ],
      "half_bracket_size": 1.905292072174948,
      "bond": [
        1,
        5
      ],
      "fragment": "F1",
      "backbone": true,
      "suspended_anchor_atom": null,
      "suspended_reason": null,
      "source_label": "F1/mergedFragments[0]/subMolblock",
      "marker_id": "native-outer-right",
      "side": "right",
      "connection_group": "$overall",
      "marker_type_index": null
    }
  ]
}
