
     RDKit          2D

  0  0  0  0  0  0  0  0  0  0999 V3000
M  V30 BEGIN CTAB
M  V30 COUNTS 26 27 4 0 0
M  V30 BEGIN ATOM
M  V30 1 H -2.304238 -0.448570 0.000000 0
M  V30 2 H 2.303863 0.051404 0.000000 0
M  V30 3 C -1.438181 0.051404 0.000000 0
M  V30 4 C -0.572124 -0.448570 0.000000 0
M  V30 5 C -0.572124 -1.448570 0.000000 0
M  V30 6 C 0.293860 -1.948546 0.000000 0
M  V30 7 C 0.293860 -2.948498 0.000000 0
M  V30 8 C -1.438108 -1.948546 0.000000 0
M  V30 9 C -1.438108 -2.948498 0.000000 0
M  V30 10 C -0.572124 -3.448474 0.000000 0
M  V30 11 C -0.572124 -4.448474 0.000000 0
M  V30 12 C -0.072024 -5.314479 0.000000 0
M  V30 13 C -0.572124 -6.180475 0.000000 0
M  V30 14 C -0.072024 -7.046479 0.000000 0
M  V30 15 N -0.072077 -10.510749 0.000000 0
M  V30 16 O -0.571961 -7.912541 0.000000 0
M  V30 17 C -0.072061 -8.778545 0.000000 0
M  V30 18 C -0.571961 -9.644656 0.000000 0
M  V30 19 C 0.571945 0.051404 0.000000 0
M  V30 20 C 1.437904 -0.448604 0.000000 0
M  V30 21 C 1.437904 -1.448606 0.000000 0
M  V30 22 C 0.571702 -1.948539 0.000000 0
M  V30 23 C 0.571902 -2.948541 0.000000 0
M  V30 24 C 1.437704 -3.448610 0.000000 0
M  V30 25 C 2.303906 -2.948677 0.000000 0
M  V30 26 C 2.303706 -1.948675 0.000000 0
M  V30 END ATOM
M  V30 BEGIN BOND
M  V30 1 1 3 4
M  V30 2 2 5 6
M  V30 3 1 6 7
M  V30 4 1 5 8
M  V30 5 2 8 9
M  V30 6 1 9 10
M  V30 7 1 10 11
M  V30 8 1 11 12
M  V30 9 1 12 13
M  V30 10 1 13 14
M  V30 11 2 10 7
M  V30 12 1 16 17
M  V30 13 1 17 18
M  V30 14 1 14 16
M  V30 15 1 15 18
M  V30 16 1 4 5
M  V30 17 1 19 20
M  V30 18 1 20 21
M  V30 19 2 21 22
M  V30 20 1 22 23
M  V30 21 2 23 24
M  V30 22 1 24 25
M  V30 23 2 25 26
M  V30 24 1 26 21
M  V30 25 1 4 19
M  V30 26 1 1 3
M  V30 27 1 2 20
M  V30 END BOND
M  V30 BEGIN SGROUP
M  V30 1 SRU 0 ATOMS=(4 14 15 16 18) CBONDS=(2 14 15) -
M  V30 BRKXYZ=(9 0.1779 -7.4795 0 -0.8219 -7.4795 0 0 0 0) BRKXYZ=(9 0.1779 -1-
M  V30 0.0777 0 -0.8219 -10.0777 0 0 0 0)
M  V30 2 SRU 0 ATOMS=(4 1 3 4 19) CBONDS=(2 25 26) -
M  V30 BRKXYZ=(9 -1.8712 0.3014 0 -1.8712 -0.6986 0 0 0 0) BRKXYZ=(9 -0.0001 0-
M  V30 .3014 0 -0.0001 -0.6986 0 0 0 0)
M  V30 3 SRU 0 ATOMS=(4 2 4 19 20) CBONDS=(2 25 27) -
M  V30 BRKXYZ=(9 -0.0001 0.3014 0 -0.0001 -0.6986 0 0 0 0) BRKXYZ=(9 1.8709 0.-
M  V30 3014 0 1.8709 -0.6986 0 0 0 0)
M  V30 4 SRU 0 ATOMS=(4 1 2 3 20) CBONDS=(2 26 27) -
M  V30 BRKXYZ=(9 -1.8712 10.3636 0 -1.8712 -10.7607 0 0 0 0) BRKXYZ=(9 1.8709 -
M  V30 10.3636 0 1.8709 -10.7608 0 0 0 0)
M  V30 END SGROUP
M  V30 END CTAB
M  END
>  <BIGSMILES_BRACKET_RECORDS_JSON>
{
  "records": [
    {
      "id": 0,
      "bracket_kind": "backbone",
      "pairing_id": "F3/fragments[0]",
      "group_id": "<1:3",
      "ru_midpoint": [
        -0.4053279679466302,
        -8.778580679750789
      ],
      "bond_midpoint": [
        -0.3219924762442379,
        -7.479509934754665
      ],
      "orientation_vector": [
        1.0,
        0.0
      ],
      "half_bracket_size": 0.49990016001536197,
      "bond": [
        13,
        15
      ],
      "fragment": "F3",
      "backbone": true,
      "suspended_anchor_atom": null,
      "suspended_reason": null,
      "source_label": "F3/fragments[0]",
      "marker_id": "0",
      "side": "left",
      "connection_group": "<1",
      "marker_type_index": 3
    },
    {
      "id": 1,
      "bracket_kind": "backbone",
      "pairing_id": "F3/fragments[0]",
      "group_id": ">1:4",
      "ru_midpoint": [
        -0.4053279679466302,
        -8.778580679750789
      ],
      "bond_midpoint": [
        -0.32201927262939445,
        -10.077702609369002
      ],
      "orientation_vector": [
        1.0,
        0.0
      ],
      "half_bracket_size": 0.49990016001536197,
      "bond": [
        14,
        17
      ],
      "fragment": "F3",
      "backbone": true,
      "suspended_anchor_atom": null,
      "suspended_reason": null,
      "source_label": "F3/fragments[0]",
      "marker_id": "4",
      "side": "right",
      "connection_group": ">1",
      "marker_type_index": 4
    },
    {
      "id": 2,
      "bracket_kind": "backbone",
      "pairing_id": "F1-0/subMolblock",
      "group_id": "$a:2",
      "ru_midpoint": [
        -1.4381842177034847,
        -0.2819123433337656
      ],
      "bond_midpoint": [
        -1.8712096499419855,
        -0.19858300015800068
      ],
      "orientation_vector": [
        0.0,
        1.0
      ],
      "half_bracket_size": 0.4999730592252327,
      "bond": [
        0,
        2
      ],
      "fragment": "F1-0",
      "backbone": true,
      "suspended_anchor_atom": null,
      "suspended_reason": null,
      "source_label": "F1-0/subMolblock",
      "marker_id": "0",
      "side": "left",
      "connection_group": "$a",
      "marker_type_index": 2
    },
    {
      "id": 3,
      "bracket_kind": "backbone",
      "pairing_id": "F1-0/subMolblock",
      "group_id": "$a:2",
      "ru_midpoint": [
        -1.4381842177034847,
        -0.2819123433337656
      ],
      "bond_midpoint": [
        -8.960720043660331e-05,
        -0.19858300015800068
      ],
      "orientation_vector": [
        0.0,
        1.0
      ],
      "half_bracket_size": 0.4999730592252327,
      "bond": [
        3,
        18
      ],
      "fragment": "F1-0",
      "backbone": true,
      "suspended_anchor_atom": null,
      "suspended_reason": null,
      "source_label": "F1-0/subMolblock",
      "marker_id": "4",
      "side": "right",
      "connection_group": "$a",
      "marker_type_index": 2
    },
    {
      "id": 4,
      "bracket_kind": "backbone",
      "pairing_id": "F1/fragments[1]",
      "group_id": "$a:2",
      "ru_midpoint": [
        1.437872543640167,
        -0.11528704827425268
      ],
      "bond_midpoint": [
        -8.960720043660331e-05,
        -0.19858300015800068
      ],
      "orientation_vector": [
        0.0,
        1.0
      ],
      "half_bracket_size": 0.5000070589092322,
      "bond": [
        3,
        18
      ],
      "fragment": "F1",
      "backbone": true,
      "suspended_anchor_atom": null,
      "suspended_reason": null,
      "source_label": "F1/fragments[1]",
      "marker_id": "0",
      "side": "left",
      "connection_group": "$a",
      "marker_type_index": 2
    },
    {
      "id": 5,
      "bracket_kind": "backbone",
      "pairing_id": "F1/fragments[1]",
      "group_id": "$a:2",
      "ru_midpoint": [
        1.437872543640167,
        -0.11528704827425268
      ],
      "bond_midpoint": [
        1.8708832091544736,
        -0.19860000000000022
      ],
      "orientation_vector": [
        0.0,
        1.0
      ],
      "half_bracket_size": 0.5000070589092322,
      "bond": [
        1,
        19
      ],
      "fragment": "F1",
      "backbone": true,
      "suspended_anchor_atom": null,
      "suspended_reason": null,
      "source_label": "F1/fragments[1]",
      "marker_id": "9",
      "side": "right",
      "connection_group": "$a",
      "marker_type_index": 2
    },
    {
      "id": 6,
      "bracket_kind": "backbone",
      "pairing_id": "F1/connected",
      "group_id": "$overall",
      "ru_midpoint": [
        -0.1741230832159486,
        -3.9345785633826167
      ],
      "bond_midpoint": [
        -1.8712096499419855,
        -0.19858300015800068
      ],
      "orientation_vector": [
        0.0,
        1.0
      ],
      "half_bracket_size": 10.562152274530881,
      "bond": [
        0,
        2
      ],
      "fragment": "F1",
      "backbone": true,
      "suspended_anchor_atom": null,
      "suspended_reason": null,
      "source_label": "F1/connected",
      "marker_id": "connected-overall-left",
      "side": "left",
      "connection_group": "$overall",
      "marker_type_index": null
    },
    {
      "id": 7,
      "bracket_kind": "backbone",
      "pairing_id": "F1/connected",
      "group_id": "$overall",
      "ru_midpoint": [
        -0.1741230832159486,
        -3.9345785633826167
      ],
      "bond_midpoint": [
        1.8708832091544736,
        -0.19860000000000022
      ],
      "orientation_vector": [
        0.0,
        1.0
      ],
      "half_bracket_size": 10.562152274530881,
      "bond": [
        1,
        19
      ],
      "fragment": "F1",
      "backbone": true,
      "suspended_anchor_atom": null,
      "suspended_reason": null,
      "source_label": "F1/connected",
      "marker_id": "connected-overall-right",
      "side": "right",
      "connection_group": "$overall",
      "marker_type_index": null
    }
  ]
}
