
     RDKit          2D

  0  0  0  0  0  0  0  0  0  0999 V3000
M  V30 BEGIN CTAB
M  V30 COUNTS 40 41 4 0 0
M  V30 BEGIN ATOM
M  V30 1 H -11.758547 -0.198391 0.000000 0
M  V30 2 H 11.758148 -0.199105 0.000000 0
M  V30 3 C -10.892543 -0.698291 0.000000 0
M  V30 4 O -10.892545 -1.698291 0.000000 0
M  V30 5 N -10.026538 -0.198391 0.000000 0
M  V30 6 C -9.160535 -0.698429 0.000000 0
M  V30 7 C -9.160578 -1.698398 0.000000 0
M  V30 8 C -8.294602 -2.198420 0.000000 0
M  V30 9 C -7.428581 -1.698473 0.000000 0
M  V30 10 C -6.562566 -2.198518 0.000000 0
M  V30 11 C -7.428538 -0.698504 0.000000 0
M  V30 12 C -8.294514 -0.198482 0.000000 0
M  V30 13 N -6.562490 -0.198542 0.000000 0
M  V30 14 C -5.696494 -0.698442 0.000000 0
M  V30 15 O -5.696496 -1.698443 0.000000 0
M  V30 16 O -4.830490 -0.198542 0.000000 0
M  V30 17 C -3.964378 -0.698442 0.000000 0
M  V30 18 C -3.098258 -0.198542 0.000000 0
M  V30 19 O 0.366011 -0.198596 0.000000 0
M  V30 20 O -2.232197 -0.698480 0.000000 0
M  V30 21 C -1.366193 -0.198580 0.000000 0
M  V30 22 C -0.500081 -0.698480 0.000000 0
M  V30 23 C 1.366011 -0.198596 0.000000 0
M  V30 24 O 1.366009 -1.198596 0.000000 0
M  V30 25 N 2.232015 0.301304 0.000000 0
M  V30 26 C 3.097996 -0.198773 0.000000 0
M  V30 27 C 3.097907 -1.198787 0.000000 0
M  V30 28 C 3.963900 -1.698872 0.000000 0
M  V30 29 C 4.829983 -1.198942 0.000000 0
M  V30 30 C 5.695947 -1.699009 0.000000 0
M  V30 31 C 4.830072 -0.198927 0.000000 0
M  V30 32 C 3.964079 0.301157 0.000000 0
M  V30 33 N 5.696142 0.300995 0.000000 0
M  V30 34 C 6.562138 -0.199105 0.000000 0
M  V30 35 O 6.562136 -1.199105 0.000000 0
M  V30 36 O 7.428143 0.300995 0.000000 0
M  V30 37 C 8.294139 -0.199105 0.000000 0
M  V30 38 C 9.160143 0.300995 0.000000 0
M  V30 39 C 10.026139 -0.199105 0.000000 0
M  V30 40 O 10.892144 0.300995 0.000000 0
M  V30 END ATOM
M  V30 BEGIN BOND
M  V30 1 2 3 4
M  V30 2 1 3 5
M  V30 3 1 5 6
M  V30 4 2 6 7
M  V30 5 1 7 8
M  V30 6 2 8 9
M  V30 7 1 9 10
M  V30 8 1 9 11
M  V30 9 2 11 12
M  V30 10 1 11 13
M  V30 11 1 13 14
M  V30 12 2 14 15
M  V30 13 1 14 16
M  V30 14 1 16 17
M  V30 15 1 17 18
M  V30 16 1 12 6
M  V30 17 1 20 21
M  V30 18 1 21 22
M  V30 19 1 18 20
M  V30 20 1 19 22
M  V30 21 2 23 24
M  V30 22 1 23 25
M  V30 23 1 25 26
M  V30 24 2 26 27
M  V30 25 1 27 28
M  V30 26 2 28 29
M  V30 27 1 29 30
M  V30 28 1 29 31
M  V30 29 2 31 32
M  V30 30 1 31 33
M  V30 31 1 33 34
M  V30 32 2 34 35
M  V30 33 1 34 36
M  V30 34 1 36 37
M  V30 35 1 37 38
M  V30 36 1 38 39
M  V30 37 1 39 40
M  V30 38 1 32 26
M  V30 39 1 19 23
M  V30 40 1 1 3
M  V30 41 1 2 40
M  V30 END BOND
M  V30 BEGIN SGROUP
M  V30 1 SRU 0 ATOMS=(4 18 19 20 22) CBONDS=(2 19 20) -
M  V30 BRKXYZ=(9 -2.6652 0.0514 0 -2.6652 -0.9484 0 0 0 0) BRKXYZ=(9 -0.0670 0-
M  V30 .0514 0 -0.0670 -0.9484 0 0 0 0)
M  V30 2 SRU 0 ATOMS=(4 2 19 23 40) CBONDS=(2 39 41) -
M  V30 BRKXYZ=(9 0.8660 1.8016 0 0.8660 -2.1988 0 0 0 0) BRKXYZ=(9 11.3251 2.0-
M  V30 511 0 11.3251 -1.9492 0 0 0 0)
M  V30 3 SRU 0 ATOMS=(4 1 3 19 23) CBONDS=(2 39 40) -
M  V30 BRKXYZ=(9 -11.3255 1.5518 0 -11.3255 -2.4485 0 0 0 0) BRKXYZ=(9 0.8660 -
M  V30 1.8016 0 0.8660 -2.1988 0 0 0 0)
M  V30 4 SRU 0 ATOMS=(4 1 2 3 40) CBONDS=(2 40 41) -
M  V30 BRKXYZ=(9 -11.3255 2.0515 0 -11.3255 -2.9482 0 0 0 0) BRKXYZ=(9 11.3251-
M  V30  2.5508 0 11.3251 -2.4489 0 0 0 0)
M  V30 END SGROUP
M  V30 END CTAB
M  END
>  <BIGSMILES_BRACKET_RECORDS_JSON>
{
  "records": [
    {
      "id": 0,
      "bracket_kind": "backbone",
      "pairing_id": "F2/fragments[0]",
      "group_id": "<1:3",
      "ru_midpoint": [
        -1.3661250455501381,
        -0.3985398494410189
      ],
      "bond_midpoint": [
        -2.665227689870264,
        -0.4485110670760561
      ],
      "orientation_vector": [
        0.0,
        1.0
      ],
      "half_bracket_size": 0.49990016001536197,
      "bond": [
        17,
        19
      ],
      "fragment": "F2",
      "backbone": true,
      "suspended_anchor_atom": null,
      "suspended_reason": null,
      "source_label": "F2/fragments[0]",
      "marker_id": "0",
      "side": "left",
      "connection_group": "<1",
      "marker_type_index": 3
    },
    {
      "id": 1,
      "bracket_kind": "backbone",
      "pairing_id": "F2/fragments[0]",
      "group_id": ">1:4",
      "ru_midpoint": [
        -1.3661250455501381,
        -0.3985398494410189
      ],
      "bond_midpoint": [
        -0.06703501525592515,
        -0.44853786346121194
      ],
      "orientation_vector": [
        0.0,
        1.0
      ],
      "half_bracket_size": 0.49990016001536197,
      "bond": [
        18,
        21
      ],
      "fragment": "F2",
      "backbone": true,
      "suspended_anchor_atom": null,
      "suspended_reason": null,
      "source_label": "F2/fragments[0]",
      "marker_id": "4",
      "side": "right",
      "connection_group": ">1",
      "marker_type_index": 4
    },
    {
      "id": 2,
      "bracket_kind": "backbone",
      "pairing_id": "F1/mergedFragments[1]",
      "group_id": ">1:4",
      "ru_midpoint": [
        5.74702129971238,
        -0.19892195113662475
      ],
      "bond_midpoint": [
        0.8660111204513363,
        -0.19859578147218776
      ],
      "orientation_vector": [
        0.0,
        1.0
      ],
      "half_bracket_size": 2.000176260657714,
      "bond": [
        18,
        22
      ],
      "fragment": "F1",
      "backbone": true,
      "suspended_anchor_atom": null,
      "suspended_reason": null,
      "source_label": "F1/mergedFragments[1]",
      "marker_id": "0",
      "side": "left",
      "connection_group": ">1",
      "marker_type_index": 4
    },
    {
      "id": 3,
      "bracket_kind": "backbone",
      "pairing_id": "F1/mergedFragments[1]",
      "group_id": "<1:3",
      "ru_midpoint": [
        5.74702129971238,
        -0.19892195113662475
      ],
      "bond_midpoint": [
        11.325146205654459,
        0.0509453516419191
      ],
      "orientation_vector": [
        0.0,
        1.0
      ],
      "half_bracket_size": 2.000176260657714,
      "bond": [
        1,
        39
      ],
      "fragment": "F1",
      "backbone": true,
      "suspended_anchor_atom": null,
      "suspended_reason": null,
      "source_label": "F1/mergedFragments[1]",
      "marker_id": "19",
      "side": "right",
      "connection_group": "<1",
      "marker_type_index": 3
    },
    {
      "id": 4,
      "bracket_kind": "backbone",
      "pairing_id": "F1/mergedFragments[0]/subMolblock/native-outer",
      "group_id": "$overall",
      "ru_midpoint": [
        -5.741940783290572,
        -0.6721725886852594
      ],
      "bond_midpoint": [
        -11.325544831520775,
        -0.44834103232709016
      ],
      "orientation_vector": [
        0.0,
        1.0
      ],
      "half_bracket_size": 2.000176260657714,
      "bond": [
        0,
        2
      ],
      "fragment": "F1",
      "backbone": true,
      "suspended_anchor_atom": null,
      "suspended_reason": null,
      "source_label": "F1/mergedFragments[0]/subMolblock",
      "marker_id": "native-outer-left",
      "side": "left",
      "connection_group": "$overall",
      "marker_type_index": null
    },
    {
      "id": 5,
      "bracket_kind": "backbone",
      "pairing_id": "F1/mergedFragments[0]/subMolblock/native-outer",
      "group_id": "$overall",
      "ru_midpoint": [
        -5.741940783290572,
        -0.6721725886852594
      ],
      "bond_midpoint": [
        0.8660111204513363,
        -0.19859578147218776
      ],
      "orientation_vector": [
        0.0,
        1.0
      ],
      "half_bracket_size": 2.000176260657714,
      "bond": [
        18,
        22
      ],
      "fragment": "F1",
      "backbone": true,
      "suspended_anchor_atom": null,
      "suspended_reason": null,
      "source_label": "F1/mergedFragments[0]/subMolblock",
      "marker_id": "native-outer-right",
      "side": "right",
      "connection_group": "$overall",
      "marker_type_index": null
    },
    {
      "id": 6,
      "bracket_kind": "backbone",
      "pairing_id": "F1/connected",
      "group_id": "$overall",
      "ru_midpoint": [
        -0.00490211313221689,
        -0.21657519894280103
      ],
      "bond_midpoint": [
        -11.325544831520775,
        -0.44834103232709016
      ],
      "orientation_vector": [
        0.0,
        1.0
      ],
      "half_bracket_size": 2.499822421194725,
      "bond": [
        0,
        2
      ],
      "fragment": "F1",
      "backbone": true,
      "suspended_anchor_atom": null,
      "suspended_reason": null,
      "source_label": "F1/connected",
      "marker_id": "connected-overall-left",
      "side": "left",
      "connection_group": "$overall",
      "marker_type_index": null
    },
    {
      "id": 7,
      "bracket_kind": "backbone",
      "pairing_id": "F1/connected",
      "group_id": "$overall",
      "ru_midpoint": [
        -0.00490211313221689,
        -0.21657519894280103
      ],
      "bond_midpoint": [
        11.325146205654459,
        0.0509453516419191
      ],
      "orientation_vector": [
        0.0,
        1.0
      ],
      "half_bracket_size": 2.499822421194725,
      "bond": [
        1,
        39
      ],
      "fragment": "F1",
      "backbone": true,
      "suspended_anchor_atom": null,
      "suspended_reason": null,
      "source_label": "F1/connected",
      "marker_id": "connected-overall-right",
      "side": "right",
      "connection_group": "$overall",
      "marker_type_index": null
    }
  ]
}
