
     RDKit          2D

  0  0  0  0  0  0  0  0  0  0999 V3000
M  V30 BEGIN CTAB
M  V30 COUNTS 119 121 6 0 0
M  V30 BEGIN ATOM
M  V30 1 C 8.668227 5.802200 0.000000 0
M  V30 2 C 8.668227 4.802200 0.000000 0
M  V30 3 C 7.668227 4.802200 0.000000 0
M  V30 4 C 7.168235 3.936187 0.000000 0
M  V30 5 C 6.168249 3.936187 0.000000 0
M  V30 6 C 7.168235 5.668213 0.000000 0
M  V30 7 C 6.168249 5.668213 0.000000 0
M  V30 8 C 5.668257 4.802200 0.000000 0
M  V30 9 O 4.668257 4.802200 0.000000 0
M  V30 10 C 3.802225 4.302211 0.000000 0
M  V30 11 O 3.802218 3.302233 0.000000 0
M  V30 12 C 2.691394 4.802200 0.000000 0
M  V30 13 C 2.691394 5.802200 0.000000 0
M  V30 14 C 8.668227 3.802200 0.000000 0
M  V30 15 C 7.802208 3.302233 0.000000 0
M  V30 16 C 7.802208 2.302255 0.000000 0
M  V30 17 C 9.534246 3.302189 0.000000 0
M  V30 18 C 9.534246 2.302211 0.000000 0
M  V30 19 C 8.668227 1.802244 0.000000 0
M  V30 20 O 8.668227 0.802266 0.000000 0
M  V30 21 C 7.802208 0.302299 0.000000 0
M  V30 22 O 6.936189 0.802310 0.000000 0
M  V30 23 C 7.802208 -0.697679 0.000000 0
M  V30 24 C 6.936189 -1.197646 0.000000 0
M  V30 25 C 9.668227 4.802200 0.000000 0
M  V30 26 C 10.168220 3.936187 0.000000 0
M  V30 27 C 11.168205 3.936187 0.000000 0
M  V30 28 C 10.168220 5.668213 0.000000 0
M  V30 29 C 11.168205 5.668213 0.000000 0
M  V30 30 C 11.668198 4.802200 0.000000 0
M  V30 31 O 12.668198 4.802200 0.000000 0
M  V30 32 C 13.534198 4.302200 0.000000 0
M  V30 33 O 13.534198 3.302200 0.000000 0
M  V30 34 C 14.400198 4.802200 0.000000 0
M  V30 35 C 15.266198 4.302200 0.000000 0
M  V30 36 C 1.825388 4.302211 0.000000 0
M  V30 37 O 0.959368 4.802312 0.000000 0
M  V30 38 C -2.504787 4.802328 0.000000 0
M  V30 39 O -2.504796 5.802330 0.000000 0
M  V30 40 C -3.370655 4.302227 0.000000 0
M  V30 41 C -4.236559 4.802328 0.000000 0
M  V30 42 C -5.102543 4.302227 0.000000 0
M  V30 43 O -5.102484 3.302225 0.000000 0
M  V30 44 O -5.968763 4.802328 0.000000 0
M  V30 45 C 0.093388 4.302234 0.000000 0
M  V30 46 O 0.093378 3.302232 0.000000 0
M  V30 47 C -0.772596 4.802335 0.000000 0
M  V30 48 C -0.772596 5.802337 0.000000 0
M  V30 49 O -1.638816 4.302234 0.000000 0
M  V30 50 C 2.691394 3.789993 0.000000 0
M  V30 51 O 3.191495 2.923973 0.000000 0
M  V30 52 C 3.191511 -0.540182 0.000000 0
M  V30 53 O 4.191513 -0.540191 0.000000 0
M  V30 54 C 2.691410 -1.406050 0.000000 0
M  V30 55 C 3.191511 -2.271954 0.000000 0
M  V30 56 C 2.691410 -3.137938 0.000000 0
M  V30 57 O 1.691408 -3.137879 0.000000 0
M  V30 58 O 3.191511 -4.004158 0.000000 0
M  V30 59 C 2.691417 2.057993 0.000000 0
M  V30 60 O 1.691415 2.057984 0.000000 0
M  V30 61 C 3.191518 1.192009 0.000000 0
M  V30 62 C 4.191520 1.192009 0.000000 0
M  V30 63 O 2.691417 0.325789 0.000000 0
M  V30 64 C 8.802186 -0.697679 0.000000 0
M  V30 65 O 9.668206 -0.197578 0.000000 0
M  V30 66 C 13.132361 -0.197562 0.000000 0
M  V30 67 O 13.132370 0.802440 0.000000 0
M  V30 68 C 13.998229 -0.697663 0.000000 0
M  V30 69 C 14.864134 -0.197562 0.000000 0
M  V30 70 C 15.730117 -0.697663 0.000000 0
M  V30 71 O 15.730058 -1.697665 0.000000 0
M  V30 72 O 16.596337 -0.197562 0.000000 0
M  V30 73 C 10.534186 -0.697656 0.000000 0
M  V30 74 O 10.534196 -1.697658 0.000000 0
M  V30 75 C 11.400170 -0.197555 0.000000 0
M  V30 76 C 11.400170 0.802447 0.000000 0
M  V30 77 O 12.266390 -0.697656 0.000000 0
M  V30 78 C 8.302175 -1.563698 0.000000 0
M  V30 79 O 9.168195 -1.063597 0.000000 0
M  V30 80 C 12.632350 -1.063581 0.000000 0
M  V30 81 O 12.632359 -0.063579 0.000000 0
M  V30 82 C 13.498218 -1.563682 0.000000 0
M  V30 83 C 14.364123 -1.063581 0.000000 0
M  V30 84 C 15.230106 -1.563682 0.000000 0
M  V30 85 O 15.230047 -2.563684 0.000000 0
M  V30 86 O 16.096326 -1.063581 0.000000 0
M  V30 87 C 10.034175 -1.563675 0.000000 0
M  V30 88 O 10.034185 -2.563677 0.000000 0
M  V30 89 C 10.900159 -1.063574 0.000000 0
M  V30 90 C 10.900159 -0.063572 0.000000 0
M  V30 91 O 11.766379 -1.563675 0.000000 0
M  V30 92 C 14.400198 5.802200 0.000000 0
M  V30 93 O 13.900097 6.668220 0.000000 0
M  V30 94 C 13.900081 10.132375 0.000000 0
M  V30 95 O 12.900079 10.132384 0.000000 0
M  V30 96 C 14.400182 10.998242 0.000000 0
M  V30 97 C 13.900081 11.864147 0.000000 0
M  V30 98 C 14.400182 12.730131 0.000000 0
M  V30 99 O 15.400184 12.730072 0.000000 0
M  V30 100 O 13.900081 13.596351 0.000000 0
M  V30 101 C 14.400175 7.534200 0.000000 0
M  V30 102 O 15.400177 7.534209 0.000000 0
M  V30 103 C 13.900074 8.400184 0.000000 0
M  V30 104 C 12.900072 8.400184 0.000000 0
M  V30 105 O 14.400175 9.266404 0.000000 0
M  V30 106 C 14.400198 3.802200 0.000000 0
M  V30 107 O 14.900299 2.936180 0.000000 0
M  V30 108 C 14.900315 -0.527975 0.000000 0
M  V30 109 O 15.900317 -0.527984 0.000000 0
M  V30 110 C 14.400214 -1.393842 0.000000 0
M  V30 111 C 14.900315 -2.259747 0.000000 0
M  V30 112 C 14.400214 -3.125731 0.000000 0
M  V30 113 O 13.400212 -3.125672 0.000000 0
M  V30 114 O 14.900315 -3.991951 0.000000 0
M  V30 115 C 14.400221 2.070200 0.000000 0
M  V30 116 O 13.400219 2.070191 0.000000 0
M  V30 117 C 14.900322 1.204216 0.000000 0
M  V30 118 C 15.900324 1.204216 0.000000 0
M  V30 119 O 14.400221 0.337996 0.000000 0
M  V30 END ATOM
M  V30 BEGIN BOND
M  V30 1 1 1 2
M  V30 2 1 2 3
M  V30 3 2 3 4
M  V30 4 1 4 5
M  V30 5 1 3 6
M  V30 6 2 6 7
M  V30 7 1 7 8
M  V30 8 1 8 9
M  V30 9 1 9 10
M  V30 10 2 10 11
M  V30 11 1 10 12
M  V30 12 1 12 13
M  V30 13 1 2 14
M  V30 14 2 14 15
M  V30 15 1 15 16
M  V30 16 1 14 17
M  V30 17 2 17 18
M  V30 18 1 18 19
M  V30 19 1 19 20
M  V30 20 1 20 21
M  V30 21 2 21 22
M  V30 22 1 21 23
M  V30 23 1 23 24
M  V30 24 1 2 25
M  V30 25 2 25 26
M  V30 26 1 26 27
M  V30 27 1 25 28
M  V30 28 2 28 29
M  V30 29 1 29 30
M  V30 30 1 30 31
M  V30 31 1 31 32
M  V30 32 2 32 33
M  V30 33 1 32 34
M  V30 34 1 34 35
M  V30 35 2 8 5
M  V30 36 2 19 16
M  V30 37 2 30 27
M  V30 38 1 36 37
M  V30 39 2 38 39
M  V30 40 1 38 40
M  V30 41 1 40 41
M  V30 42 1 41 42
M  V30 43 2 42 43
M  V30 44 1 42 44
M  V30 45 2 45 46
M  V30 46 1 45 47
M  V30 47 1 47 48
M  V30 48 1 47 49
M  V30 49 1 37 45
M  V30 50 1 38 49
M  V30 51 1 12 36
M  V30 52 1 50 51
M  V30 53 2 52 53
M  V30 54 1 52 54
M  V30 55 1 54 55
M  V30 56 1 55 56
M  V30 57 2 56 57
M  V30 58 1 56 58
M  V30 59 2 59 60
M  V30 60 1 59 61
M  V30 61 1 61 62
M  V30 62 1 61 63
M  V30 63 1 51 59
M  V30 64 1 52 63
M  V30 65 1 12 50
M  V30 66 1 64 65
M  V30 67 2 66 67
M  V30 68 1 66 68
M  V30 69 1 68 69
M  V30 70 1 69 70
M  V30 71 2 70 71
M  V30 72 1 70 72
M  V30 73 2 73 74
M  V30 74 1 73 75
M  V30 75 1 75 76
M  V30 76 1 75 77
M  V30 77 1 65 73
M  V30 78 1 66 77
M  V30 79 1 23 64
M  V30 80 1 78 79
M  V30 81 2 80 81
M  V30 82 1 80 82
M  V30 83 1 82 83
M  V30 84 1 83 84
M  V30 85 2 84 85
M  V30 86 1 84 86
M  V30 87 2 87 88
M  V30 88 1 87 89
M  V30 89 1 89 90
M  V30 90 1 89 91
M  V30 91 1 79 87
M  V30 92 1 80 91
M  V30 93 1 23 78
M  V30 94 1 92 93
M  V30 95 2 94 95
M  V30 96 1 94 96
M  V30 97 1 96 97
M  V30 98 1 97 98
M  V30 99 2 98 99
M  V30 100 1 98 100
M  V30 101 2 101 102
M  V30 102 1 101 103
M  V30 103 1 103 104
M  V30 104 1 103 105
M  V30 105 1 93 101
M  V30 106 1 94 105
M  V30 107 1 34 92
M  V30 108 1 106 107
M  V30 109 2 108 109
M  V30 110 1 108 110
M  V30 111 1 110 111
M  V30 112 1 111 112
M  V30 113 2 112 113
M  V30 114 1 112 114
M  V30 115 2 115 116
M  V30 116 1 115 117
M  V30 117 1 117 118
M  V30 118 1 117 119
M  V30 119 1 107 115
M  V30 120 1 108 119
M  V30 121 1 34 106
M  V30 END BOND
M  V30 BEGIN SGROUP
M  V30 1 SRU 0 ATOMS=(4 65 66 73 77) CBONDS=(2 77 78) -
M  V30 BRKXYZ=(9 10.1012 0.0525 0 10.1012 -0.9477 0 0 0 0) BRKXYZ=(9 12.6994 0-
M  V30 .0525 0 12.6994 -0.9477 0 0 0 0)
M  V30 2 SRU 0 ATOMS=(4 51 52 59 63) CBONDS=(2 63 64) -
M  V30 BRKXYZ=(9 3.4416 2.4910 0 2.4414 2.4910 0 0 0 0) BRKXYZ=(9 3.4416 -0.10-
M  V30 72 0 2.4414 -0.1072 0 0 0 0)
M  V30 3 SRU 0 ATOMS=(4 37 38 45 49) CBONDS=(2 49 50) -
M  V30 BRKXYZ=(9 0.5264 5.0524 0 0.5264 4.0522 0 0 0 0) BRKXYZ=(9 -2.0718 5.05-
M  V30 24 0 -2.0718 4.0522 0 0 0 0)
M  V30 4 SRU 0 ATOMS=(4 107 108 115 119) CBONDS=(2 119 120) -
M  V30 BRKXYZ=(9 15.1504 2.5032 0 14.1502 2.5032 0 0 0 0) BRKXYZ=(9 15.1504 -0-
M  V30 .0950 0 14.1502 -0.0950 0 0 0 0)
M  V30 5 SRU 0 ATOMS=(4 93 94 101 105) CBONDS=(2 105 106) -
M  V30 BRKXYZ=(9 13.6500 7.1012 0 14.6502 7.1012 0 0 0 0) BRKXYZ=(9 13.6500 9.-
M  V30 6994 0 14.6502 9.6994 0 0 0 0)
M  V30 6 SRU 0 ATOMS=(4 79 80 87 91) CBONDS=(2 91 92) -
M  V30 BRKXYZ=(9 9.6012 -0.8135 0 9.6012 -1.8137 0 0 0 0) BRKXYZ=(9 12.1994 -0-
M  V30 .8135 0 12.1994 -1.8137 0 0 0 0)
M  V30 END SGROUP
M  V30 END CTAB
M  END
>  <BIGSMILES_BRACKET_RECORDS_JSON>
{
  "records": [
    {
      "id": 0,
      "bracket_kind": "backbone",
      "pairing_id": "F9/fragments[0]",
      "group_id": "<1:3",
      "ru_midpoint": [
        11.400257223279937,
        -0.3975955056962769
      ],
      "bond_midpoint": [
        10.101196279659035,
        -0.4476170521686248
      ],
      "orientation_vector": [
        0.0,
        1.0
      ],
      "half_bracket_size": 0.5001009994649716,
      "bond": [
        64,
        72
      ],
      "fragment": "F9",
      "backbone": true,
      "suspended_anchor_atom": null,
      "suspended_reason": null,
      "source_label": "F9/fragments[0]",
      "marker_id": "0",
      "side": "left",
      "connection_group": "<1",
      "marker_type_index": 3
    },
    {
      "id": 1,
      "bracket_kind": "backbone",
      "pairing_id": "F9/fragments[0]",
      "group_id": ">1:4",
      "ru_midpoint": [
        11.400257223279937,
        -0.3975955056962769
      ],
      "bond_midpoint": [
        12.699375576161643,
        -0.4476091362810515
      ],
      "orientation_vector": [
        0.0,
        1.0
      ],
      "half_bracket_size": 0.5001009994649716,
      "bond": [
        65,
        76
      ],
      "fragment": "F9",
      "backbone": true,
      "suspended_anchor_atom": null,
      "suspended_reason": null,
      "source_label": "F9/fragments[0]",
      "marker_id": "6",
      "side": "right",
      "connection_group": ">1",
      "marker_type_index": 4
    },
    {
      "id": 2,
      "bracket_kind": "backbone",
      "pairing_id": "F8/fragments[0]",
      "group_id": "<1:3",
      "ru_midpoint": [
        2.858117467847664,
        1.1919303988737293
      ],
      "bond_midpoint": [
        2.941456187899309,
        2.490982868585268
      ],
      "orientation_vector": [
        1.0,
        0.0
      ],
      "half_bracket_size": 0.5001009994649716,
      "bond": [
        50,
        58
      ],
      "fragment": "F8",
      "backbone": true,
      "suspended_anchor_atom": null,
      "suspended_reason": null,
      "source_label": "F8/fragments[0]",
      "marker_id": "0",
      "side": "left",
      "connection_group": "<1",
      "marker_type_index": 3
    },
    {
      "id": 3,
      "bracket_kind": "backbone",
      "pairing_id": "F8/fragments[0]",
      "group_id": ">1:4",
      "ru_midpoint": [
        2.858117467847664,
        1.1919303988737293
      ],
      "bond_midpoint": [
        2.941464103786882,
        -0.10719642791733919
      ],
      "orientation_vector": [
        1.0,
        0.0
      ],
      "half_bracket_size": 0.5001009994649716,
      "bond": [
        51,
        62
      ],
      "fragment": "F8",
      "backbone": true,
      "suspended_anchor_atom": null,
      "suspended_reason": null,
      "source_label": "F8/fragments[0]",
      "marker_id": "6",
      "side": "right",
      "connection_group": ">1",
      "marker_type_index": 4
    },
    {
      "id": 4,
      "bracket_kind": "backbone",
      "pairing_id": "F7/fragments[0]",
      "group_id": "<1:3",
      "ru_midpoint": [
        -0.7726746792512703,
        4.468934226327694
      ],
      "bond_midpoint": [
        0.5263777904602683,
        4.552272946379339
      ],
      "orientation_vector": [
        0.0,
        1.0
      ],
      "half_bracket_size": 0.5001009994649716,
      "bond": [
        36,
        44
      ],
      "fragment": "F7",
      "backbone": true,
      "suspended_anchor_atom": null,
      "suspended_reason": null,
      "source_label": "F7/fragments[0]",
      "marker_id": "0",
      "side": "left",
      "connection_group": "<1",
      "marker_type_index": 3
    },
    {
      "id": 5,
      "bracket_kind": "backbone",
      "pairing_id": "F7/fragments[0]",
      "group_id": ">1:4",
      "ru_midpoint": [
        -0.7726746792512703,
        4.468934226327694
      ],
      "bond_midpoint": [
        -2.071801506042339,
        4.552280862266912
      ],
      "orientation_vector": [
        0.0,
        1.0
      ],
      "half_bracket_size": 0.5001009994649716,
      "bond": [
        37,
        48
      ],
      "fragment": "F7",
      "backbone": true,
      "suspended_anchor_atom": null,
      "suspended_reason": null,
      "source_label": "F7/fragments[0]",
      "marker_id": "6",
      "side": "right",
      "connection_group": ">1",
      "marker_type_index": 4
    },
    {
      "id": 6,
      "bracket_kind": "backbone",
      "pairing_id": "F12/fragments[0]",
      "group_id": "<1:3",
      "ru_midpoint": [
        14.700281391439727,
        1.2041289562143618
      ],
      "bond_midpoint": [
        14.650259844967382,
        2.503189899835262
      ],
      "orientation_vector": [
        1.0,
        0.0
      ],
      "half_bracket_size": 0.5001009994649716,
      "bond": [
        106,
        114
      ],
      "fragment": "F12",
      "backbone": true,
      "suspended_anchor_atom": null,
      "suspended_reason": null,
      "source_label": "F12/fragments[0]",
      "marker_id": "0",
      "side": "left",
      "connection_group": "<1",
      "marker_type_index": 3
    },
    {
      "id": 7,
      "bracket_kind": "backbone",
      "pairing_id": "F12/fragments[0]",
      "group_id": ">1:4",
      "ru_midpoint": [
        14.700281391439727,
        1.2041289562143618
      ],
      "bond_midpoint": [
        14.650267760854955,
        -0.0949893966673434
      ],
      "orientation_vector": [
        1.0,
        0.0
      ],
      "half_bracket_size": 0.5001009994649716,
      "bond": [
        107,
        118
      ],
      "fragment": "F12",
      "backbone": true,
      "suspended_anchor_atom": null,
      "suspended_reason": null,
      "source_label": "F12/fragments[0]",
      "marker_id": "6",
      "side": "right",
      "connection_group": ">1",
      "marker_type_index": 4
    },
    {
      "id": 8,
      "bracket_kind": "backbone",
      "pairing_id": "F11/fragments[0]",
      "group_id": "<1:3",
      "ru_midpoint": [
        14.100114405978362,
        8.40027104378563
      ],
      "bond_midpoint": [
        14.150135952450709,
        7.101210100164731
      ],
      "orientation_vector": [
        -1.0,
        0.0
      ],
      "half_bracket_size": 0.5001009994649716,
      "bond": [
        92,
        100
      ],
      "fragment": "F11",
      "backbone": true,
      "suspended_anchor_atom": null,
      "suspended_reason": null,
      "source_label": "F11/fragments[0]",
      "marker_id": "0",
      "side": "left",
      "connection_group": "<1",
      "marker_type_index": 3
    },
    {
      "id": 9,
      "bracket_kind": "backbone",
      "pairing_id": "F11/fragments[0]",
      "group_id": ">1:4",
      "ru_midpoint": [
        14.100114405978362,
        8.40027104378563
      ],
      "bond_midpoint": [
        14.150128036563135,
        9.699389396667335
      ],
      "orientation_vector": [
        -1.0,
        0.0
      ],
      "half_bracket_size": 0.5001009994649716,
      "bond": [
        93,
        104
      ],
      "fragment": "F11",
      "backbone": true,
      "suspended_anchor_atom": null,
      "suspended_reason": null,
      "source_label": "F11/fragments[0]",
      "marker_id": "6",
      "side": "right",
      "connection_group": ">1",
      "marker_type_index": 4
    },
    {
      "id": 10,
      "bracket_kind": "backbone",
      "pairing_id": "F10/fragments[0]",
      "group_id": "<1:3",
      "ru_midpoint": [
        10.900246222916923,
        -1.263614558325016
      ],
      "bond_midpoint": [
        9.601185279296022,
        -1.313636104797364
      ],
      "orientation_vector": [
        0.0,
        1.0
      ],
      "half_bracket_size": 0.5001009994649716,
      "bond": [
        78,
        86
      ],
      "fragment": "F10",
      "backbone": true,
      "suspended_anchor_atom": null,
      "suspended_reason": null,
      "source_label": "F10/fragments[0]",
      "marker_id": "0",
      "side": "left",
      "connection_group": "<1",
      "marker_type_index": 3
    },
    {
      "id": 11,
      "bracket_kind": "backbone",
      "pairing_id": "F10/fragments[0]",
      "group_id": ">1:4",
      "ru_midpoint": [
        10.900246222916923,
        -1.263614558325016
      ],
      "bond_midpoint": [
        12.19936457579863,
        -1.3136281889097907
      ],
      "orientation_vector": [
        0.0,
        1.0
      ],
      "half_bracket_size": 0.5001009994649716,
      "bond": [
        79,
        90
      ],
      "fragment": "F10",
      "backbone": true,
      "suspended_anchor_atom": null,
      "suspended_reason": null,
      "source_label": "F10/fragments[0]",
      "marker_id": "6",
      "side": "right",
      "connection_group": ">1",
      "marker_type_index": 4
    }
  ]
}
