
     RDKit          2D

  0  0  0  0  0  0  0  0  0  0999 V3000
M  V30 BEGIN CTAB
M  V30 COUNTS 65 64 4 0 0
M  V30 BEGIN ATOM
M  V30 1 C 1.367999 1.218185 0.000000 0
M  V30 2 C 0.502000 1.718169 0.000000 0
M  V30 3 O -6.425924 1.718216 0.000000 0
M  V30 4 C -7.292044 1.218316 0.000000 0
M  V30 5 O -7.292046 0.218315 0.000000 0
M  V30 6 C -8.158156 1.718216 0.000000 0
M  V30 7 C -8.158156 0.718284 0.000000 0
M  V30 8 C -8.158156 2.718248 0.000000 0
M  V30 9 Br -9.024267 1.218316 0.000000 0
M  V30 10 O -0.363975 1.218082 0.000000 0
M  V30 11 C -1.229979 1.718182 0.000000 0
M  V30 12 O -1.229981 2.718182 0.000000 0
M  V30 13 C -2.095975 1.218082 0.000000 0
M  V30 14 C -2.961980 1.718182 0.000000 0
M  V30 15 C -3.827976 1.218082 0.000000 0
M  V30 16 C -4.693980 1.718182 0.000000 0
M  V30 17 C -5.559976 1.218082 0.000000 0
M  V30 18 C 1.367999 2.442794 0.000000 0
M  V30 19 O 1.368045 9.370718 0.000000 0
M  V30 20 C 0.868145 10.236838 0.000000 0
M  V30 21 O -0.131855 10.236840 0.000000 0
M  V30 22 C 1.368045 11.102950 0.000000 0
M  V30 23 C 0.368114 11.102950 0.000000 0
M  V30 24 C 2.368077 11.102950 0.000000 0
M  V30 25 Br 0.868145 11.969061 0.000000 0
M  V30 26 O 0.867911 3.308769 0.000000 0
M  V30 27 C 1.368011 4.174773 0.000000 0
M  V30 28 O 2.368012 4.174775 0.000000 0
M  V30 29 C 0.867911 5.040769 0.000000 0
M  V30 30 C 1.368011 5.906774 0.000000 0
M  V30 31 C 0.867911 6.772770 0.000000 0
M  V30 32 C 1.368011 7.638774 0.000000 0
M  V30 33 C 0.867911 8.504770 0.000000 0
M  V30 34 C 1.367999 0.218185 0.000000 0
M  V30 35 O 1.367953 -6.709740 0.000000 0
M  V30 36 C 1.867853 -7.575860 0.000000 0
M  V30 37 O 2.867853 -7.575862 0.000000 0
M  V30 38 C 1.367953 -8.441971 0.000000 0
M  V30 39 C 2.367884 -8.441971 0.000000 0
M  V30 40 C 0.367921 -8.441971 0.000000 0
M  V30 41 Br 1.867853 -9.308083 0.000000 0
M  V30 42 O 1.868087 -0.647790 0.000000 0
M  V30 43 C 1.367987 -1.513794 0.000000 0
M  V30 44 O 0.367986 -1.513797 0.000000 0
M  V30 45 C 1.868087 -2.379791 0.000000 0
M  V30 46 C 1.367987 -3.245795 0.000000 0
M  V30 47 C 1.868087 -4.111791 0.000000 0
M  V30 48 C 1.367987 -4.977796 0.000000 0
M  V30 49 C 1.868087 -5.843792 0.000000 0
M  V30 50 C 2.234027 1.718169 0.000000 0
M  V30 51 O 9.161951 1.718216 0.000000 0
M  V30 52 C 10.028071 1.218316 0.000000 0
M  V30 53 O 10.028073 0.218315 0.000000 0
M  V30 54 C 10.894182 1.718216 0.000000 0
M  V30 55 C 10.894182 0.718284 0.000000 0
M  V30 56 C 10.894182 2.718248 0.000000 0
M  V30 57 Br 11.760294 1.218316 0.000000 0
M  V30 58 O 3.100001 1.218082 0.000000 0
M  V30 59 C 3.966006 1.718182 0.000000 0
M  V30 60 O 3.966008 2.718182 0.000000 0
M  V30 61 C 4.832002 1.218082 0.000000 0
M  V30 62 C 5.698006 1.718182 0.000000 0
M  V30 63 C 6.564002 1.218082 0.000000 0
M  V30 64 C 7.430007 1.718182 0.000000 0
M  V30 65 C 8.296003 1.218082 0.000000 0
M  V30 END ATOM
M  V30 BEGIN BOND
M  V30 1 1 3 4
M  V30 2 2 4 5
M  V30 3 1 4 6
M  V30 4 1 6 7
M  V30 5 1 6 8
M  V30 6 1 6 9
M  V30 7 1 10 11
M  V30 8 2 11 12
M  V30 9 1 11 13
M  V30 10 1 13 14
M  V30 11 1 14 15
M  V30 12 1 15 16
M  V30 13 1 16 17
M  V30 14 1 2 10
M  V30 15 1 3 17
M  V30 16 1 1 2
M  V30 17 1 19 20
M  V30 18 2 20 21
M  V30 19 1 20 22
M  V30 20 1 22 23
M  V30 21 1 22 24
M  V30 22 1 22 25
M  V30 23 1 26 27
M  V30 24 2 27 28
M  V30 25 1 27 29
M  V30 26 1 29 30
M  V30 27 1 30 31
M  V30 28 1 31 32
M  V30 29 1 32 33
M  V30 30 1 18 26
M  V30 31 1 19 33
M  V30 32 1 1 18
M  V30 33 1 35 36
M  V30 34 2 36 37
M  V30 35 1 36 38
M  V30 36 1 38 39
M  V30 37 1 38 40
M  V30 38 1 38 41
M  V30 39 1 42 43
M  V30 40 2 43 44
M  V30 41 1 43 45
M  V30 42 1 45 46
M  V30 43 1 46 47
M  V30 44 1 47 48
M  V30 45 1 48 49
M  V30 46 1 34 42
M  V30 47 1 35 49
M  V30 48 1 1 34
M  V30 49 1 51 52
M  V30 50 2 52 53
M  V30 51 1 52 54
M  V30 52 1 54 55
M  V30 53 1 54 56
M  V30 54 1 54 57
M  V30 55 1 58 59
M  V30 56 2 59 60
M  V30 57 1 59 61
M  V30 58 1 61 62
M  V30 59 1 62 63
M  V30 60 1 63 64
M  V30 61 1 64 65
M  V30 62 1 50 58
M  V30 63 1 51 65
M  V30 64 1 1 50
M  V30 END BOND
M  V30 BEGIN SGROUP
M  V30 1 SRU 0 ATOMS=(4 50 51 58 65) CBONDS=(2 62 63) -
M  V30 BRKXYZ=(9 2.6670 0.9680 0 2.6670 1.9682 0 0 0 0) BRKXYZ=(9 8.7290 0.968-
M  V30 0 0 8.7290 1.9682 0 0 0 0)
M  V30 2 SRU 0 ATOMS=(4 34 35 42 49) CBONDS=(2 46 47) -
M  V30 BRKXYZ=(9 2.1181 -0.2148 0 1.1179 -0.2148 0 0 0 0) BRKXYZ=(9 2.1181 -6.-
M  V30 2768 0 1.1179 -6.2768 0 0 0 0)
M  V30 3 SRU 0 ATOMS=(4 18 19 26 33) CBONDS=(2 30 31) -
M  V30 BRKXYZ=(9 0.6179 2.8758 0 1.6181 2.8758 0 0 0 0) BRKXYZ=(9 0.6179 8.937-
M  V30 7 0 1.6181 8.9377 0 0 0 0)
M  V30 4 SRU 0 ATOMS=(4 2 3 10 17) CBONDS=(2 14 15) -
M  V30 BRKXYZ=(9 0.0690 0.9680 0 0.0690 1.9682 0 0 0 0) BRKXYZ=(9 -5.9930 0.96-
M  V30 80 0 -5.9930 1.9682 0 0 0 0)
M  V30 END SGROUP
M  V30 END CTAB
M  END
>  <BIGSMILES_BRACKET_RECORDS_JSON>
{
  "records": [
    {
      "id": 0,
      "bracket_kind": "backbone",
      "pairing_id": "F8/fragments[0]",
      "group_id": ">1:4",
      "ru_midpoint": [
        5.697991591235668,
        1.4959150537918573
      ],
      "bond_midpoint": [
        2.66701389208563,
        1.4681255455655193
      ],
      "orientation_vector": [
        0.0,
        -1.0
      ],
      "half_bracket_size": 0.5001001599500269,
      "bond": [
        49,
        57
      ],
      "fragment": "F8",
      "backbone": true,
      "suspended_anchor_atom": null,
      "suspended_reason": null,
      "source_label": "F8/fragments[0]",
      "marker_id": "0",
      "side": "left",
      "connection_group": ">1",
      "marker_type_index": 4
    },
    {
      "id": 1,
      "bracket_kind": "backbone",
      "pairing_id": "F8/fragments[0]",
      "group_id": "<1:3",
      "ru_midpoint": [
        5.697991591235668,
        1.4959150537918573
      ],
      "bond_midpoint": [
        8.728976877857534,
        1.468148751726555
      ],
      "orientation_vector": [
        0.0,
        -1.0
      ],
      "half_bracket_size": 0.5001001599500269,
      "bond": [
        50,
        64
      ],
      "fragment": "F8",
      "backbone": true,
      "suspended_anchor_atom": null,
      "suspended_reason": null,
      "source_label": "F8/fragments[0]",
      "marker_id": "9",
      "side": "right",
      "connection_group": "<1",
      "marker_type_index": 3
    },
    {
      "id": 2,
      "bracket_kind": "backbone",
      "pairing_id": "F7/fragments[0]",
      "group_id": ">1:4",
      "ru_midpoint": [
        1.590253360706505,
        -3.245780314564926
      ],
      "bond_midpoint": [
        1.618042868932846,
        -0.21480261541488793
      ],
      "orientation_vector": [
        1.0,
        0.0
      ],
      "half_bracket_size": 0.5001001599500269,
      "bond": [
        33,
        41
      ],
      "fragment": "F7",
      "backbone": true,
      "suspended_anchor_atom": null,
      "suspended_reason": null,
      "source_label": "F7/fragments[0]",
      "marker_id": "0",
      "side": "left",
      "connection_group": ">1",
      "marker_type_index": 4
    },
    {
      "id": 3,
      "bracket_kind": "backbone",
      "pairing_id": "F7/fragments[0]",
      "group_id": "<1:3",
      "ru_midpoint": [
        1.590253360706505,
        -3.245780314564926
      ],
      "bond_midpoint": [
        1.618019662771804,
        -6.276765601186792
      ],
      "orientation_vector": [
        1.0,
        0.0
      ],
      "half_bracket_size": 0.5001001599500269,
      "bond": [
        34,
        48
      ],
      "fragment": "F7",
      "backbone": true,
      "suspended_anchor_atom": null,
      "suspended_reason": null,
      "source_label": "F7/fragments[0]",
      "marker_id": "9",
      "side": "right",
      "connection_group": "<1",
      "marker_type_index": 3
    },
    {
      "id": 4,
      "bracket_kind": "backbone",
      "pairing_id": "F6/fragments[0]",
      "group_id": ">1:4",
      "ru_midpoint": [
        1.1457445492229463,
        5.906759149098566
      ],
      "bond_midpoint": [
        1.1179550409966077,
        2.8757814499485277
      ],
      "orientation_vector": [
        -1.0,
        0.0
      ],
      "half_bracket_size": 0.5001001599500269,
      "bond": [
        17,
        25
      ],
      "fragment": "F6",
      "backbone": true,
      "suspended_anchor_atom": null,
      "suspended_reason": null,
      "source_label": "F6/fragments[0]",
      "marker_id": "0",
      "side": "left",
      "connection_group": ">1",
      "marker_type_index": 4
    },
    {
      "id": 5,
      "bracket_kind": "backbone",
      "pairing_id": "F6/fragments[0]",
      "group_id": "<1:3",
      "ru_midpoint": [
        1.1457445492229463,
        5.906759149098566
      ],
      "bond_midpoint": [
        1.117978247157645,
        8.937744435720433
      ],
      "orientation_vector": [
        -1.0,
        0.0
      ],
      "half_bracket_size": 0.5001001599500269,
      "bond": [
        18,
        32
      ],
      "fragment": "F6",
      "backbone": true,
      "suspended_anchor_atom": null,
      "suspended_reason": null,
      "source_label": "F6/fragments[0]",
      "marker_id": "9",
      "side": "right",
      "connection_group": "<1",
      "marker_type_index": 3
    },
    {
      "id": 6,
      "bracket_kind": "backbone",
      "pairing_id": "F5/fragments[0]",
      "group_id": ">1:4",
      "ru_midpoint": [
        -2.9619650443317456,
        1.4959150537918573
      ],
      "bond_midpoint": [
        0.06901265481829189,
        1.4681255455655193
      ],
      "orientation_vector": [
        0.0,
        -1.0
      ],
      "half_bracket_size": 0.5001001599500269,
      "bond": [
        1,
        9
      ],
      "fragment": "F5",
      "backbone": true,
      "suspended_anchor_atom": null,
      "suspended_reason": null,
      "source_label": "F5/fragments[0]",
      "marker_id": "0",
      "side": "left",
      "connection_group": ">1",
      "marker_type_index": 4
    },
    {
      "id": 7,
      "bracket_kind": "backbone",
      "pairing_id": "F5/fragments[0]",
      "group_id": "<1:3",
      "ru_midpoint": [
        -2.9619650443317456,
        1.4959150537918573
      ],
      "bond_midpoint": [
        -5.992950330953612,
        1.468148751726555
      ],
      "orientation_vector": [
        0.0,
        -1.0
      ],
      "half_bracket_size": 0.5001001599500269,
      "bond": [
        2,
        16
      ],
      "fragment": "F5",
      "backbone": true,
      "suspended_anchor_atom": null,
      "suspended_reason": null,
      "source_label": "F5/fragments[0]",
      "marker_id": "9",
      "side": "right",
      "connection_group": "<1",
      "marker_type_index": 3
    }
  ]
}
