
     RDKit          2D

  0  0  0  0  0  0  0  0  0  0999 V3000
M  V30 BEGIN CTAB
M  V30 COUNTS 253 252 12 0 0
M  V30 BEGIN ATOM
M  V30 1 C 1.367999 1.574895 0.000000 0
M  V30 2 C 0.502000 1.074911 0.000000 0
M  V30 3 O -6.425924 1.074864 0.000000 0
M  V30 4 C -7.291813 1.574964 0.000000 0
M  V30 5 O -7.291815 2.574965 0.000000 0
M  V30 6 C -8.157694 1.074864 0.000000 0
M  V30 7 C -8.157694 2.074789 0.000000 0
M  V30 8 C -8.157694 0.074832 0.000000 0
M  V30 9 Br -13.209859 1.574877 0.000000 0
M  V30 10 O -0.363975 1.574999 0.000000 0
M  V30 11 C -1.229979 1.074898 0.000000 0
M  V30 12 O -1.229981 0.074898 0.000000 0
M  V30 13 C -2.095975 1.574999 0.000000 0
M  V30 14 C -2.961980 1.074898 0.000000 0
M  V30 15 C -3.827976 1.574999 0.000000 0
M  V30 16 C -4.693980 1.074898 0.000000 0
M  V30 17 C -5.559976 1.574999 0.000000 0
M  V30 18 C -9.023755 1.574802 0.000000 0
M  V30 19 C -9.889760 1.074902 0.000000 0
M  V30 20 C -9.889760 2.074834 0.000000 0
M  V30 21 C -9.889760 0.074977 0.000000 0
M  V30 22 O -9.023694 -0.424954 0.000000 0
M  V30 23 O -10.755652 -0.425117 0.000000 0
M  V30 24 C -10.755652 -1.425042 0.000000 0
M  V30 25 C -11.621545 -1.925136 0.000000 0
M  V30 26 O -11.621371 -2.925160 0.000000 0
M  V30 27 C -12.487437 -3.425154 0.000000 0
M  V30 28 C -12.487264 -4.425179 0.000000 0
M  V30 29 O -13.353329 -4.925173 0.000000 0
M  V30 30 C -13.353156 -5.925198 0.000000 0
M  V30 31 C -14.219222 -6.425192 0.000000 0
M  V30 32 O -14.219049 -7.425216 0.000000 0
M  V30 33 C -15.085114 -7.925210 0.000000 0
M  V30 34 C -15.084941 -8.925235 0.000000 0
M  V30 35 O -15.950834 -9.425329 0.000000 0
M  V30 36 C -15.950834 -10.425254 0.000000 0
M  V30 37 C -16.816726 -10.925348 0.000000 0
M  V30 38 O -16.816726 -11.925273 0.000000 0
M  V30 39 C -17.682619 -12.425367 0.000000 0
M  V30 40 C -17.682619 -13.425291 0.000000 0
M  V30 41 O -18.548511 -13.925385 0.000000 0
M  V30 42 C -18.548511 -14.925310 0.000000 0
M  V30 43 C -19.414404 -15.425404 0.000000 0
M  V30 44 O -19.414230 -16.425429 0.000000 0
M  V30 45 C -20.280296 -16.925423 0.000000 0
M  V30 46 C -20.280123 -17.925447 0.000000 0
M  V30 47 O -21.146188 -18.425441 0.000000 0
M  V30 48 C -21.146015 -19.425466 0.000000 0
M  V30 49 C -22.012081 -19.925460 0.000000 0
M  V30 50 O -22.011908 -20.925485 0.000000 0
M  V30 51 C -22.877973 -21.425479 0.000000 0
M  V30 52 C -11.477794 1.574840 0.000000 0
M  V30 53 C -12.343798 1.074939 0.000000 0
M  V30 54 C -12.343798 2.074971 0.000000 0
M  V30 55 C -12.343798 0.075015 0.000000 0
M  V30 56 O -11.477732 -0.424916 0.000000 0
M  V30 57 O -13.209690 -0.425079 0.000000 0
M  V30 58 C -13.209517 -1.425104 0.000000 0
M  V30 59 C -14.075583 -1.925098 0.000000 0
M  V30 60 O -14.075410 -2.925123 0.000000 0
M  V30 61 C -14.941475 -3.425117 0.000000 0
M  V30 62 C -14.941302 -4.425141 0.000000 0
M  V30 63 O -15.807368 -4.925135 0.000000 0
M  V30 64 C -15.807195 -5.925160 0.000000 0
M  V30 65 C 1.367999 0.350286 0.000000 0
M  V30 66 O 1.368045 -6.577638 0.000000 0
M  V30 67 C 0.867945 -7.443527 0.000000 0
M  V30 68 O -0.132055 -7.443529 0.000000 0
M  V30 69 C 1.368045 -8.309408 0.000000 0
M  V30 70 C 0.368121 -8.309408 0.000000 0
M  V30 71 C 2.368077 -8.309408 0.000000 0
M  V30 72 Br 0.868032 -13.361573 0.000000 0
M  V30 73 O 0.867911 -0.515689 0.000000 0
M  V30 74 C 1.368011 -1.381693 0.000000 0
M  V30 75 O 2.368012 -1.381695 0.000000 0
M  V30 76 C 0.867911 -2.247689 0.000000 0
M  V30 77 C 1.368011 -3.113694 0.000000 0
M  V30 78 C 0.867911 -3.979690 0.000000 0
M  V30 79 C 1.368011 -4.845694 0.000000 0
M  V30 80 C 0.867911 -5.711690 0.000000 0
M  V30 81 C 0.868108 -9.175469 0.000000 0
M  V30 82 C 1.368008 -10.041474 0.000000 0
M  V30 83 C 0.368076 -10.041474 0.000000 0
M  V30 84 C 2.367933 -10.041474 0.000000 0
M  V30 85 O 2.867863 -9.175408 0.000000 0
M  V30 86 O 2.868026 -10.907366 0.000000 0
M  V30 87 C 3.867951 -10.907366 0.000000 0
M  V30 88 C 4.368045 -11.773258 0.000000 0
M  V30 89 O 5.368070 -11.773085 0.000000 0
M  V30 90 C 5.868064 -12.639151 0.000000 0
M  V30 91 C 6.868089 -12.638978 0.000000 0
M  V30 92 O 7.368083 -13.505043 0.000000 0
M  V30 93 C 8.368107 -13.504870 0.000000 0
M  V30 94 C 8.868101 -14.370936 0.000000 0
M  V30 95 O 9.868126 -14.370763 0.000000 0
M  V30 96 C 10.368120 -15.236828 0.000000 0
M  V30 97 C 11.368145 -15.236655 0.000000 0
M  V30 98 O 11.868239 -16.102548 0.000000 0
M  V30 99 C 12.868163 -16.102548 0.000000 0
M  V30 100 C 13.368257 -16.968440 0.000000 0
M  V30 101 O 14.368182 -16.968440 0.000000 0
M  V30 102 C 14.868276 -17.834333 0.000000 0
M  V30 103 C 15.868201 -17.834333 0.000000 0
M  V30 104 O 16.368295 -18.700225 0.000000 0
M  V30 105 C 17.368220 -18.700225 0.000000 0
M  V30 106 C 17.868314 -19.566117 0.000000 0
M  V30 107 O 18.868338 -19.565944 0.000000 0
M  V30 108 C 19.368332 -20.432010 0.000000 0
M  V30 109 C 20.368357 -20.431837 0.000000 0
M  V30 110 O 20.868351 -21.297902 0.000000 0
M  V30 111 C 21.868376 -21.297729 0.000000 0
M  V30 112 C 22.368370 -22.163795 0.000000 0
M  V30 113 O 23.368394 -22.163622 0.000000 0
M  V30 114 C 23.868389 -23.029687 0.000000 0
M  V30 115 C 0.868070 -11.629508 0.000000 0
M  V30 116 C 1.367970 -12.495512 0.000000 0
M  V30 117 C 0.367938 -12.495512 0.000000 0
M  V30 118 C 2.367895 -12.495512 0.000000 0
M  V30 119 O 2.867826 -11.629446 0.000000 0
M  V30 120 O 2.867989 -13.361404 0.000000 0
M  V30 121 C 3.868014 -13.361231 0.000000 0
M  V30 122 C 4.368008 -14.227297 0.000000 0
M  V30 123 O 5.368032 -14.227124 0.000000 0
M  V30 124 C 5.868026 -15.093189 0.000000 0
M  V30 125 C 6.868051 -15.093016 0.000000 0
M  V30 126 O 7.368045 -15.959082 0.000000 0
M  V30 127 C 8.368070 -15.958909 0.000000 0
M  V30 128 C 1.367999 2.574895 0.000000 0
M  V30 129 O 1.367953 9.502820 0.000000 0
M  V30 130 C 1.868053 10.368709 0.000000 0
M  V30 131 O 2.868053 10.368711 0.000000 0
M  V30 132 C 1.367953 11.234589 0.000000 0
M  V30 133 C 2.367877 11.234589 0.000000 0
M  V30 134 C 0.367921 11.234589 0.000000 0
M  V30 135 Br 1.867965 16.286755 0.000000 0
M  V30 136 O 1.868087 3.440870 0.000000 0
M  V30 137 C 1.367987 4.306875 0.000000 0
M  V30 138 O 0.367986 4.306877 0.000000 0
M  V30 139 C 1.868087 5.172871 0.000000 0
M  V30 140 C 1.367987 6.038875 0.000000 0
M  V30 141 C 1.868087 6.904871 0.000000 0
M  V30 142 C 1.367987 7.770876 0.000000 0
M  V30 143 C 1.868087 8.636872 0.000000 0
M  V30 144 C 1.867890 12.100651 0.000000 0
M  V30 145 C 1.367990 12.966655 0.000000 0
M  V30 146 C 2.367922 12.966655 0.000000 0
M  V30 147 C 0.368065 12.966655 0.000000 0
M  V30 148 O -0.131865 12.100589 0.000000 0
M  V30 149 O -0.132029 13.832547 0.000000 0
M  V30 150 C -1.131953 13.832547 0.000000 0
M  V30 151 C -1.632047 14.698440 0.000000 0
M  V30 152 O -2.632072 14.698267 0.000000 0
M  V30 153 C -3.132066 15.564332 0.000000 0
M  V30 154 C -4.132091 15.564159 0.000000 0
M  V30 155 O -4.632085 16.430225 0.000000 0
M  V30 156 C -5.632109 16.430052 0.000000 0
M  V30 157 C -6.132103 17.296117 0.000000 0
M  V30 158 O -7.132128 17.295944 0.000000 0
M  V30 159 C -7.632122 18.162010 0.000000 0
M  V30 160 C -8.632147 18.161837 0.000000 0
M  V30 161 O -9.132241 19.027729 0.000000 0
M  V30 162 C -10.132166 19.027729 0.000000 0
M  V30 163 C -10.632260 19.893622 0.000000 0
M  V30 164 O -11.632184 19.893622 0.000000 0
M  V30 165 C -12.132278 20.759514 0.000000 0
M  V30 166 C -13.132203 20.759514 0.000000 0
M  V30 167 O -13.632297 21.625406 0.000000 0
M  V30 168 C -14.632222 21.625406 0.000000 0
M  V30 169 C -15.132316 22.491299 0.000000 0
M  V30 170 O -16.132340 22.491126 0.000000 0
M  V30 171 C -16.632334 23.357191 0.000000 0
M  V30 172 C -17.632359 23.357018 0.000000 0
M  V30 173 O -18.132353 24.223084 0.000000 0
M  V30 174 C -19.132378 24.222911 0.000000 0
M  V30 175 C -19.632372 25.088976 0.000000 0
M  V30 176 O -20.632397 25.088803 0.000000 0
M  V30 177 C -21.132391 25.954869 0.000000 0
M  V30 178 C 1.867928 14.554689 0.000000 0
M  V30 179 C 1.368028 15.420693 0.000000 0
M  V30 180 C 2.368060 15.420693 0.000000 0
M  V30 181 C 0.368103 15.420693 0.000000 0
M  V30 182 O -0.131828 14.554628 0.000000 0
M  V30 183 O -0.131991 16.286586 0.000000 0
M  V30 184 C -1.132016 16.286413 0.000000 0
M  V30 185 C -1.632010 17.152478 0.000000 0
M  V30 186 O -2.632034 17.152305 0.000000 0
M  V30 187 C -3.132028 18.018371 0.000000 0
M  V30 188 C -4.132053 18.018197 0.000000 0
M  V30 189 O -4.632047 18.884263 0.000000 0
M  V30 190 C -5.632072 18.884090 0.000000 0
M  V30 191 C 2.234027 1.074911 0.000000 0
M  V30 192 O 9.161951 1.074864 0.000000 0
M  V30 193 C 10.027840 1.574964 0.000000 0
M  V30 194 O 10.027842 2.574965 0.000000 0
M  V30 195 C 10.893720 1.074864 0.000000 0
M  V30 196 C 10.893720 2.074789 0.000000 0
M  V30 197 C 10.893720 0.074832 0.000000 0
M  V30 198 Br 15.945886 1.574877 0.000000 0
M  V30 199 O 3.100001 1.574999 0.000000 0
M  V30 200 C 3.966006 1.074898 0.000000 0
M  V30 201 O 3.966008 0.074898 0.000000 0
M  V30 202 C 4.832002 1.574999 0.000000 0
M  V30 203 C 5.698006 1.074898 0.000000 0
M  V30 204 C 6.564002 1.574999 0.000000 0
M  V30 205 C 7.430007 1.074898 0.000000 0
M  V30 206 C 8.296003 1.574999 0.000000 0
M  V30 207 C 11.759782 1.574802 0.000000 0
M  V30 208 C 12.625786 1.074902 0.000000 0
M  V30 209 C 12.625786 2.074834 0.000000 0
M  V30 210 C 12.625786 0.074977 0.000000 0
M  V30 211 O 11.759720 -0.424954 0.000000 0
M  V30 212 O 13.491679 -0.425117 0.000000 0
M  V30 213 C 13.491679 -1.425042 0.000000 0
M  V30 214 C 14.357571 -1.925136 0.000000 0
M  V30 215 O 14.357398 -2.925160 0.000000 0
M  V30 216 C 15.223464 -3.425154 0.000000 0
M  V30 217 C 15.223290 -4.425179 0.000000 0
M  V30 218 O 16.089356 -4.925173 0.000000 0
M  V30 219 C 16.089183 -5.925198 0.000000 0
M  V30 220 C 16.955249 -6.425192 0.000000 0
M  V30 221 O 16.955075 -7.425216 0.000000 0
M  V30 222 C 17.821141 -7.925210 0.000000 0
M  V30 223 C 17.820968 -8.925235 0.000000 0
M  V30 224 O 18.686860 -9.425329 0.000000 0
M  V30 225 C 18.686860 -10.425254 0.000000 0
M  V30 226 C 19.552753 -10.925348 0.000000 0
M  V30 227 O 19.552753 -11.925273 0.000000 0
M  V30 228 C 20.418645 -12.425367 0.000000 0
M  V30 229 C 20.418645 -13.425291 0.000000 0
M  V30 230 O 21.284538 -13.925385 0.000000 0
M  V30 231 C 21.284538 -14.925310 0.000000 0
M  V30 232 C 22.150430 -15.425404 0.000000 0
M  V30 233 O 22.150257 -16.425429 0.000000 0
M  V30 234 C 23.016323 -16.925423 0.000000 0
M  V30 235 C 23.016149 -17.925447 0.000000 0
M  V30 236 O 23.882215 -18.425441 0.000000 0
M  V30 237 C 23.882042 -19.425466 0.000000 0
M  V30 238 C 24.748108 -19.925460 0.000000 0
M  V30 239 O 24.747934 -20.925485 0.000000 0
M  V30 240 C 25.614000 -21.425479 0.000000 0
M  V30 241 C 14.213820 1.574840 0.000000 0
M  V30 242 C 15.079824 1.074939 0.000000 0
M  V30 243 C 15.079824 2.074971 0.000000 0
M  V30 244 C 15.079824 0.075015 0.000000 0
M  V30 245 O 14.213759 -0.424916 0.000000 0
M  V30 246 O 15.945717 -0.425079 0.000000 0
M  V30 247 C 15.945544 -1.425104 0.000000 0
M  V30 248 C 16.811609 -1.925098 0.000000 0
M  V30 249 O 16.811436 -2.925123 0.000000 0
M  V30 250 C 17.677502 -3.425117 0.000000 0
M  V30 251 C 17.677329 -4.425141 0.000000 0
M  V30 252 O 18.543394 -4.925135 0.000000 0
M  V30 253 C 18.543221 -5.925160 0.000000 0
M  V30 END ATOM
M  V30 BEGIN BOND
M  V30 1 1 3 4
M  V30 2 2 4 5
M  V30 3 1 4 6
M  V30 4 1 6 7
M  V30 5 1 6 8
M  V30 6 1 10 11
M  V30 7 2 11 12
M  V30 8 1 11 13
M  V30 9 1 13 14
M  V30 10 1 14 15
M  V30 11 1 15 16
M  V30 12 1 16 17
M  V30 13 1 2 10
M  V30 14 1 3 17
M  V30 15 1 18 19
M  V30 16 1 19 20
M  V30 17 1 19 21
M  V30 18 2 21 22
M  V30 19 1 21 23
M  V30 20 1 23 24
M  V30 21 1 24 25
M  V30 22 1 25 26
M  V30 23 1 26 27
M  V30 24 1 27 28
M  V30 25 1 28 29
M  V30 26 1 29 30
M  V30 27 1 30 31
M  V30 28 1 31 32
M  V30 29 1 32 33
M  V30 30 1 33 34
M  V30 31 1 34 35
M  V30 32 1 35 36
M  V30 33 1 36 37
M  V30 34 1 37 38
M  V30 35 1 38 39
M  V30 36 1 39 40
M  V30 37 1 40 41
M  V30 38 1 41 42
M  V30 39 1 42 43
M  V30 40 1 43 44
M  V30 41 1 44 45
M  V30 42 1 45 46
M  V30 43 1 46 47
M  V30 44 1 47 48
M  V30 45 1 48 49
M  V30 46 1 49 50
M  V30 47 1 50 51
M  V30 48 1 6 18
M  V30 49 1 52 53
M  V30 50 1 53 54
M  V30 51 1 53 55
M  V30 52 2 55 56
M  V30 53 1 55 57
M  V30 54 1 57 58
M  V30 55 1 58 59
M  V30 56 1 59 60
M  V30 57 1 60 61
M  V30 58 1 61 62
M  V30 59 1 62 63
M  V30 60 1 63 64
M  V30 61 1 19 52
M  V30 62 1 9 53
M  V30 63 1 1 2
M  V30 64 1 66 67
M  V30 65 2 67 68
M  V30 66 1 67 69
M  V30 67 1 69 70
M  V30 68 1 69 71
M  V30 69 1 73 74
M  V30 70 2 74 75
M  V30 71 1 74 76
M  V30 72 1 76 77
M  V30 73 1 77 78
M  V30 74 1 78 79
M  V30 75 1 79 80
M  V30 76 1 65 73
M  V30 77 1 66 80
M  V30 78 1 81 82
M  V30 79 1 82 83
M  V30 80 1 82 84
M  V30 81 2 84 85
M  V30 82 1 84 86
M  V30 83 1 86 87
M  V30 84 1 87 88
M  V30 85 1 88 89
M  V30 86 1 89 90
M  V30 87 1 90 91
M  V30 88 1 91 92
M  V30 89 1 92 93
M  V30 90 1 93 94
M  V30 91 1 94 95
M  V30 92 1 95 96
M  V30 93 1 96 97
M  V30 94 1 97 98
M  V30 95 1 98 99
M  V30 96 1 99 100
M  V30 97 1 100 101
M  V30 98 1 101 102
M  V30 99 1 102 103
M  V30 100 1 103 104
M  V30 101 1 104 105
M  V30 102 1 105 106
M  V30 103 1 106 107
M  V30 104 1 107 108
M  V30 105 1 108 109
M  V30 106 1 109 110
M  V30 107 1 110 111
M  V30 108 1 111 112
M  V30 109 1 112 113
M  V30 110 1 113 114
M  V30 111 1 69 81
M  V30 112 1 115 116
M  V30 113 1 116 117
M  V30 114 1 116 118
M  V30 115 2 118 119
M  V30 116 1 118 120
M  V30 117 1 120 121
M  V30 118 1 121 122
M  V30 119 1 122 123
M  V30 120 1 123 124
M  V30 121 1 124 125
M  V30 122 1 125 126
M  V30 123 1 126 127
M  V30 124 1 82 115
M  V30 125 1 72 116
M  V30 126 1 1 65
M  V30 127 1 129 130
M  V30 128 2 130 131
M  V30 129 1 130 132
M  V30 130 1 132 133
M  V30 131 1 132 134
M  V30 132 1 136 137
M  V30 133 2 137 138
M  V30 134 1 137 139
M  V30 135 1 139 140
M  V30 136 1 140 141
M  V30 137 1 141 142
M  V30 138 1 142 143
M  V30 139 1 128 136
M  V30 140 1 129 143
M  V30 141 1 144 145
M  V30 142 1 145 146
M  V30 143 1 145 147
M  V30 144 2 147 148
M  V30 145 1 147 149
M  V30 146 1 149 150
M  V30 147 1 150 151
M  V30 148 1 151 152
M  V30 149 1 152 153
M  V30 150 1 153 154
M  V30 151 1 154 155
M  V30 152 1 155 156
M  V30 153 1 156 157
M  V30 154 1 157 158
M  V30 155 1 158 159
M  V30 156 1 159 160
M  V30 157 1 160 161
M  V30 158 1 161 162
M  V30 159 1 162 163
M  V30 160 1 163 164
M  V30 161 1 164 165
M  V30 162 1 165 166
M  V30 163 1 166 167
M  V30 164 1 167 168
M  V30 165 1 168 169
M  V30 166 1 169 170
M  V30 167 1 170 171
M  V30 168 1 171 172
M  V30 169 1 172 173
M  V30 170 1 173 174
M  V30 171 1 174 175
M  V30 172 1 175 176
M  V30 173 1 176 177
M  V30 174 1 132 144
M  V30 175 1 178 179
M  V30 176 1 179 180
M  V30 177 1 179 181
M  V30 178 2 181 182
M  V30 179 1 181 183
M  V30 180 1 183 184
M  V30 181 1 184 185
M  V30 182 1 185 186
M  V30 183 1 186 187
M  V30 184 1 187 188
M  V30 185 1 188 189
M  V30 186 1 189 190
M  V30 187 1 145 178
M  V30 188 1 135 179
M  V30 189 1 1 128
M  V30 190 1 192 193
M  V30 191 2 193 194
M  V30 192 1 193 195
M  V30 193 1 195 196
M  V30 194 1 195 197
M  V30 195 1 199 200
M  V30 196 2 200 201
M  V30 197 1 200 202
M  V30 198 1 202 203
M  V30 199 1 203 204
M  V30 200 1 204 205
M  V30 201 1 205 206
M  V30 202 1 191 199
M  V30 203 1 192 206
M  V30 204 1 207 208
M  V30 205 1 208 209
M  V30 206 1 208 210
M  V30 207 2 210 211
M  V30 208 1 210 212
M  V30 209 1 212 213
M  V30 210 1 213 214
M  V30 211 1 214 215
M  V30 212 1 215 216
M  V30 213 1 216 217
M  V30 214 1 217 218
M  V30 215 1 218 219
M  V30 216 1 219 220
M  V30 217 1 220 221
M  V30 218 1 221 222
M  V30 219 1 222 223
M  V30 220 1 223 224
M  V30 221 1 224 225
M  V30 222 1 225 226
M  V30 223 1 226 227
M  V30 224 1 227 228
M  V30 225 1 228 229
M  V30 226 1 229 230
M  V30 227 1 230 231
M  V30 228 1 231 232
M  V30 229 1 232 233
M  V30 230 1 233 234
M  V30 231 1 234 235
M  V30 232 1 235 236
M  V30 233 1 236 237
M  V30 234 1 237 238
M  V30 235 1 238 239
M  V30 236 1 239 240
M  V30 237 1 195 207
M  V30 238 1 241 242
M  V30 239 1 242 243
M  V30 240 1 242 244
M  V30 241 2 244 245
M  V30 242 1 244 246
M  V30 243 1 246 247
M  V30 244 1 247 248
M  V30 245 1 248 249
M  V30 246 1 249 250
M  V30 247 1 250 251
M  V30 248 1 251 252
M  V30 249 1 252 253
M  V30 250 1 208 241
M  V30 251 1 198 242
M  V30 252 1 1 191
M  V30 END BOND
M  V30 BEGIN SGROUP
M  V30 1 SRU 0 ATOMS=(4 69 81 82 115) CBONDS=(2 111 124) -
M  V30 BRKXYZ=(9 0.6182 -8.7424 0 1.6180 -8.7424 0 0 0 0) BRKXYZ=(9 0.6181 -10-
M  V30 .8355 0 1.6179 -10.8355 0 0 0 0)
M  V30 2 SRU 0 ATOMS=(4 65 66 73 80) CBONDS=(2 76 77) -
M  V30 BRKXYZ=(9 0.6179 -0.0827 0 1.6181 -0.0827 0 0 0 0) BRKXYZ=(9 0.6179 -6.-
M  V30 1447 0 1.6181 -6.1447 0 0 0 0)
M  V30 3 SRU 0 ATOMS=(4 9 19 52 53) CBONDS=(2 61 62) -
M  V30 BRKXYZ=(9 -10.6838 1.8248 0 -10.6838 0.8250 0 0 0 0) BRKXYZ=(9 -12.7768-
M  V30  1.8248 0 -12.7768 0.8250 0 0 0 0)
M  V30 4 SRU 0 ATOMS=(4 6 18 19 52) CBONDS=(2 48 61) -
M  V30 BRKXYZ=(9 -8.5907 1.8247 0 -8.5907 0.8249 0 0 0 0) BRKXYZ=(9 -10.6838 1-
M  V30 .8248 0 -10.6838 0.8250 0 0 0 0)
M  V30 5 SRU 0 ATOMS=(4 2 3 10 17) CBONDS=(2 13 14) -
M  V30 BRKXYZ=(9 0.0690 1.8251 0 0.0690 0.8249 0 0 0 0) BRKXYZ=(9 -5.9930 1.82-
M  V30 50 0 -5.9930 0.8248 0 0 0 0)
M  V30 6 SRU 0 ATOMS=(4 198 208 241 242) CBONDS=(2 250 251) -
M  V30 BRKXYZ=(9 13.4198 1.8248 0 13.4198 0.8250 0 0 0 0) BRKXYZ=(9 15.5129 1.-
M  V30 8248 0 15.5129 0.8250 0 0 0 0)
M  V30 7 SRU 0 ATOMS=(4 195 207 208 241) CBONDS=(2 237 250) -
M  V30 BRKXYZ=(9 11.3268 1.8247 0 11.3268 0.8249 0 0 0 0) BRKXYZ=(9 13.4198 1.-
M  V30 8248 0 13.4198 0.8250 0 0 0 0)
M  V30 8 SRU 0 ATOMS=(4 191 192 199 206) CBONDS=(2 202 203) -
M  V30 BRKXYZ=(9 2.6670 1.8251 0 2.6670 0.8249 0 0 0 0) BRKXYZ=(9 8.7290 1.825-
M  V30 0 0 8.7290 0.8248 0 0 0 0)
M  V30 9 SRU 0 ATOMS=(4 135 145 178 179) CBONDS=(2 187 188) -
M  V30 BRKXYZ=(9 2.1179 13.7607 0 1.1181 13.7607 0 0 0 0) BRKXYZ=(9 2.1179 15.-
M  V30 8537 0 1.1181 15.8537 0 0 0 0)
M  V30 10 SRU 0 ATOMS=(4 132 144 145 178) CBONDS=(2 174 187) -
M  V30 BRKXYZ=(9 2.1178 11.6676 0 1.1180 11.6676 0 0 0 0) BRKXYZ=(9 2.1179 13.-
M  V30 7607 0 1.1181 13.7607 0 0 0 0)
M  V30 11 SRU 0 ATOMS=(4 128 129 136 143) CBONDS=(2 139 140) -
M  V30 BRKXYZ=(9 2.1181 3.0079 0 1.1179 3.0079 0 0 0 0) BRKXYZ=(9 2.1181 9.069-
M  V30 8 0 1.1179 9.0698 0 0 0 0)
M  V30 12 SRU 0 ATOMS=(4 72 82 115 116) CBONDS=(2 124 125) -
M  V30 BRKXYZ=(9 0.6181 -10.8355 0 1.6179 -10.8355 0 0 0 0) BRKXYZ=(9 0.6181 --
M  V30 12.9285 0 1.6179 -12.9285 0 0 0 0)
M  V30 END SGROUP
M  V30 END CTAB
M  END
>  <BIGSMILES_BRACKET_RECORDS_JSON>
{
  "records": [
    {
      "id": 0,
      "bracket_kind": "backbone",
      "pairing_id": "F9/fragments[0]",
      "group_id": "$a:2",
      "ru_midpoint": [
        1.1180576905461233,
        -9.60847135338905
      ],
      "bond_midpoint": [
        1.1180764889126222,
        -8.742438505348405
      ],
      "orientation_vector": [
        -1.0,
        0.0
      ],
      "half_bracket_size": 0.4999001600153621,
      "bond": [
        68,
        80
      ],
      "fragment": "F9",
      "backbone": true,
      "suspended_anchor_atom": null,
      "suspended_reason": null,
      "source_label": "F9/fragments[0]",
      "marker_id": "0",
      "side": "left",
      "connection_group": "$a",
      "marker_type_index": 2
    },
    {
      "id": 1,
      "bracket_kind": "backbone",
      "pairing_id": "F9/fragments[0]",
      "group_id": "$a:2",
      "ru_midpoint": [
        1.1180576905461233,
        -9.60847135338905
      ],
      "bond_midpoint": [
        1.1180388921796256,
        -10.835490529554704
      ],
      "orientation_vector": [
        -1.0,
        0.0
      ],
      "half_bracket_size": 0.4999001600153621,
      "bond": [
        81,
        114
      ],
      "fragment": "F9",
      "backbone": true,
      "suspended_anchor_atom": null,
      "suspended_reason": null,
      "source_label": "F9/fragments[0]",
      "marker_id": "35",
      "side": "right",
      "connection_group": "$a",
      "marker_type_index": 2
    },
    {
      "id": 2,
      "bracket_kind": "backbone",
      "pairing_id": "F8/fragments[0]",
      "group_id": ">1:4",
      "ru_midpoint": [
        1.0822397670070707,
        -3.1136913144933698
      ],
      "bond_midpoint": [
        1.1179550409966077,
        -0.08270130435033352
      ],
      "orientation_vector": [
        -1.0,
        0.0
      ],
      "half_bracket_size": 0.5001001599500269,
      "bond": [
        64,
        72
      ],
      "fragment": "F8",
      "backbone": true,
      "suspended_anchor_atom": null,
      "suspended_reason": null,
      "source_label": "F8/fragments[0]",
      "marker_id": "0",
      "side": "left",
      "connection_group": ">1",
      "marker_type_index": 4
    },
    {
      "id": 3,
      "bracket_kind": "backbone",
      "pairing_id": "F8/fragments[0]",
      "group_id": "<1:3",
      "ru_midpoint": [
        1.0822397670070707,
        -3.1136913144933698
      ],
      "bond_midpoint": [
        1.117978247157645,
        -6.144664290122235
      ],
      "orientation_vector": [
        -1.0,
        0.0
      ],
      "half_bracket_size": 0.5001001599500269,
      "bond": [
        65,
        79
      ],
      "fragment": "F8",
      "backbone": true,
      "suspended_anchor_atom": null,
      "suspended_reason": null,
      "source_label": "F8/fragments[0]",
      "marker_id": "9",
      "side": "right",
      "connection_group": "<1",
      "marker_type_index": 3
    },
    {
      "id": 4,
      "bracket_kind": "backbone",
      "pairing_id": "F7/fragments[0]",
      "group_id": "$a:2",
      "ru_midpoint": [
        -11.91079574655173,
        1.3248895472161586
      ],
      "bond_midpoint": [
        -10.683776570386076,
        1.3248707488496598
      ],
      "orientation_vector": [
        0.0,
        1.0
      ],
      "half_bracket_size": 0.49990016001536364,
      "bond": [
        18,
        51
      ],
      "fragment": "F7",
      "backbone": true,
      "suspended_anchor_atom": null,
      "suspended_reason": null,
      "source_label": "F7/fragments[0]",
      "marker_id": "0",
      "side": "left",
      "connection_group": "$a",
      "marker_type_index": 2
    },
    {
      "id": 5,
      "bracket_kind": "backbone",
      "pairing_id": "F7/fragments[0]",
      "group_id": "$a:2",
      "ru_midpoint": [
        -11.91079574655173,
        1.3248895472161586
      ],
      "bond_midpoint": [
        -12.776828594592375,
        1.3249083455826587
      ],
      "orientation_vector": [
        0.0,
        1.0
      ],
      "half_bracket_size": 0.49990016001536364,
      "bond": [
        8,
        52
      ],
      "fragment": "F7",
      "backbone": true,
      "suspended_anchor_atom": null,
      "suspended_reason": null,
      "source_label": "F7/fragments[0]",
      "marker_id": "14",
      "side": "right",
      "connection_group": "$a",
      "marker_type_index": 2
    },
    {
      "id": 6,
      "bracket_kind": "backbone",
      "pairing_id": "F6/fragments[0]",
      "group_id": "$a:2",
      "ru_midpoint": [
        -9.456757394220427,
        1.3248519504831615
      ],
      "bond_midpoint": [
        -8.590724546179777,
        1.3248331521166627
      ],
      "orientation_vector": [
        0.0,
        1.0
      ],
      "half_bracket_size": 0.4999001600153621,
      "bond": [
        5,
        17
      ],
      "fragment": "F6",
      "backbone": true,
      "suspended_anchor_atom": null,
      "suspended_reason": null,
      "source_label": "F6/fragments[0]",
      "marker_id": "0",
      "side": "left",
      "connection_group": "$a",
      "marker_type_index": 2
    },
    {
      "id": 7,
      "bracket_kind": "backbone",
      "pairing_id": "F6/fragments[0]",
      "group_id": "$a:2",
      "ru_midpoint": [
        -9.456757394220427,
        1.3248519504831615
      ],
      "bond_midpoint": [
        -10.683776570386076,
        1.3248707488496598
      ],
      "orientation_vector": [
        0.0,
        1.0
      ],
      "half_bracket_size": 0.4999001600153621,
      "bond": [
        18,
        51
      ],
      "fragment": "F6",
      "backbone": true,
      "suspended_anchor_atom": null,
      "suspended_reason": null,
      "source_label": "F6/fragments[0]",
      "marker_id": "35",
      "side": "right",
      "connection_group": "$a",
      "marker_type_index": 2
    },
    {
      "id": 8,
      "bracket_kind": "backbone",
      "pairing_id": "F5/fragments[0]",
      "group_id": ">1:4",
      "ru_midpoint": [
        -2.961977355324744,
        1.3606698740222125
      ],
      "bond_midpoint": [
        0.06901265481829189,
        1.3249546000326746
      ],
      "orientation_vector": [
        0.0,
        1.0
      ],
      "half_bracket_size": 0.5001001599500269,
      "bond": [
        1,
        9
      ],
      "fragment": "F5",
      "backbone": true,
      "suspended_anchor_atom": null,
      "suspended_reason": null,
      "source_label": "F5/fragments[0]",
      "marker_id": "0",
      "side": "left",
      "connection_group": ">1",
      "marker_type_index": 4
    },
    {
      "id": 9,
      "bracket_kind": "backbone",
      "pairing_id": "F5/fragments[0]",
      "group_id": "<1:3",
      "ru_midpoint": [
        -2.961977355324744,
        1.3606698740222125
      ],
      "bond_midpoint": [
        -5.992950330953611,
        1.3249313938716392
      ],
      "orientation_vector": [
        0.0,
        1.0
      ],
      "half_bracket_size": 0.5001001599500269,
      "bond": [
        2,
        16
      ],
      "fragment": "F5",
      "backbone": true,
      "suspended_anchor_atom": null,
      "suspended_reason": null,
      "source_label": "F5/fragments[0]",
      "marker_id": "9",
      "side": "right",
      "connection_group": "<1",
      "marker_type_index": 3
    },
    {
      "id": 10,
      "bracket_kind": "backbone",
      "pairing_id": "F16/fragments[0]",
      "group_id": "$a:2",
      "ru_midpoint": [
        14.646822293455651,
        1.3248895472161586
      ],
      "bond_midpoint": [
        13.419803117289998,
        1.3248707488496598
      ],
      "orientation_vector": [
        0.0,
        1.0
      ],
      "half_bracket_size": 0.49990016001536364,
      "bond": [
        207,
        240
      ],
      "fragment": "F16",
      "backbone": true,
      "suspended_anchor_atom": null,
      "suspended_reason": null,
      "source_label": "F16/fragments[0]",
      "marker_id": "0",
      "side": "left",
      "connection_group": "$a",
      "marker_type_index": 2
    },
    {
      "id": 11,
      "bracket_kind": "backbone",
      "pairing_id": "F16/fragments[0]",
      "group_id": "$a:2",
      "ru_midpoint": [
        14.646822293455651,
        1.3248895472161586
      ],
      "bond_midpoint": [
        15.512855141496297,
        1.3249083455826587
      ],
      "orientation_vector": [
        0.0,
        1.0
      ],
      "half_bracket_size": 0.49990016001536364,
      "bond": [
        197,
        241
      ],
      "fragment": "F16",
      "backbone": true,
      "suspended_anchor_atom": null,
      "suspended_reason": null,
      "source_label": "F16/fragments[0]",
      "marker_id": "14",
      "side": "right",
      "connection_group": "$a",
      "marker_type_index": 2
    },
    {
      "id": 12,
      "bracket_kind": "backbone",
      "pairing_id": "F15/fragments[0]",
      "group_id": "$a:2",
      "ru_midpoint": [
        12.192783941124349,
        1.3248519504831615
      ],
      "bond_midpoint": [
        11.326751093083699,
        1.3248331521166627
      ],
      "orientation_vector": [
        0.0,
        1.0
      ],
      "half_bracket_size": 0.4999001600153621,
      "bond": [
        194,
        206
      ],
      "fragment": "F15",
      "backbone": true,
      "suspended_anchor_atom": null,
      "suspended_reason": null,
      "source_label": "F15/fragments[0]",
      "marker_id": "0",
      "side": "left",
      "connection_group": "$a",
      "marker_type_index": 2
    },
    {
      "id": 13,
      "bracket_kind": "backbone",
      "pairing_id": "F15/fragments[0]",
      "group_id": "$a:2",
      "ru_midpoint": [
        12.192783941124349,
        1.3248519504831615
      ],
      "bond_midpoint": [
        13.419803117289998,
        1.3248707488496598
      ],
      "orientation_vector": [
        0.0,
        1.0
      ],
      "half_bracket_size": 0.4999001600153621,
      "bond": [
        207,
        240
      ],
      "fragment": "F15",
      "backbone": true,
      "suspended_anchor_atom": null,
      "suspended_reason": null,
      "source_label": "F15/fragments[0]",
      "marker_id": "35",
      "side": "right",
      "connection_group": "$a",
      "marker_type_index": 2
    },
    {
      "id": 14,
      "bracket_kind": "backbone",
      "pairing_id": "F14/fragments[0]",
      "group_id": ">1:4",
      "ru_midpoint": [
        5.698003902228666,
        1.3606698740222125
      ],
      "bond_midpoint": [
        2.66701389208563,
        1.3249546000326746
      ],
      "orientation_vector": [
        0.0,
        1.0
      ],
      "half_bracket_size": 0.5001001599500269,
      "bond": [
        190,
        198
      ],
      "fragment": "F14",
      "backbone": true,
      "suspended_anchor_atom": null,
      "suspended_reason": null,
      "source_label": "F14/fragments[0]",
      "marker_id": "0",
      "side": "left",
      "connection_group": ">1",
      "marker_type_index": 4
    },
    {
      "id": 15,
      "bracket_kind": "backbone",
      "pairing_id": "F14/fragments[0]",
      "group_id": "<1:3",
      "ru_midpoint": [
        5.698003902228666,
        1.3606698740222125
      ],
      "bond_midpoint": [
        8.728976877857534,
        1.3249313938716392
      ],
      "orientation_vector": [
        0.0,
        1.0
      ],
      "half_bracket_size": 0.5001001599500269,
      "bond": [
        191,
        205
      ],
      "fragment": "F14",
      "backbone": true,
      "suspended_anchor_atom": null,
      "suspended_reason": null,
      "source_label": "F14/fragments[0]",
      "marker_id": "9",
      "side": "right",
      "connection_group": "<1",
      "marker_type_index": 3
    },
    {
      "id": 16,
      "bracket_kind": "backbone",
      "pairing_id": "F13/fragments[0]",
      "group_id": "$a:2",
      "ru_midpoint": [
        1.617977816116317,
        14.987691162383104
      ],
      "bond_midpoint": [
        1.6179590177498195,
        13.76067198621745
      ],
      "orientation_vector": [
        1.0,
        0.0
      ],
      "half_bracket_size": 0.49990016001536364,
      "bond": [
        144,
        177
      ],
      "fragment": "F13",
      "backbone": true,
      "suspended_anchor_atom": null,
      "suspended_reason": null,
      "source_label": "F13/fragments[0]",
      "marker_id": "0",
      "side": "left",
      "connection_group": "$a",
      "marker_type_index": 2
    },
    {
      "id": 17,
      "bracket_kind": "backbone",
      "pairing_id": "F13/fragments[0]",
      "group_id": "$a:2",
      "ru_midpoint": [
        1.617977816116317,
        14.987691162383104
      ],
      "bond_midpoint": [
        1.6179966144828162,
        15.85372401042375
      ],
      "orientation_vector": [
        1.0,
        0.0
      ],
      "half_bracket_size": 0.49990016001536364,
      "bond": [
        134,
        178
      ],
      "fragment": "F13",
      "backbone": true,
      "suspended_anchor_atom": null,
      "suspended_reason": null,
      "source_label": "F13/fragments[0]",
      "marker_id": "14",
      "side": "right",
      "connection_group": "$a",
      "marker_type_index": 2
    },
    {
      "id": 18,
      "bracket_kind": "backbone",
      "pairing_id": "F12/fragments[0]",
      "group_id": "$a:2",
      "ru_midpoint": [
        1.6179402193833226,
        12.533652810051802
      ],
      "bond_midpoint": [
        1.6179214210168245,
        11.66761996201115
      ],
      "orientation_vector": [
        1.0,
        0.0
      ],
      "half_bracket_size": 0.4999001600153621,
      "bond": [
        131,
        143
      ],
      "fragment": "F12",
      "backbone": true,
      "suspended_anchor_atom": null,
      "suspended_reason": null,
      "source_label": "F12/fragments[0]",
      "marker_id": "0",
      "side": "left",
      "connection_group": "$a",
      "marker_type_index": 2
    },
    {
      "id": 19,
      "bracket_kind": "backbone",
      "pairing_id": "F12/fragments[0]",
      "group_id": "$a:2",
      "ru_midpoint": [
        1.6179402193833226,
        12.533652810051802
      ],
      "bond_midpoint": [
        1.6179590177498195,
        13.76067198621745
      ],
      "orientation_vector": [
        1.0,
        0.0
      ],
      "half_bracket_size": 0.4999001600153621,
      "bond": [
        144,
        177
      ],
      "fragment": "F12",
      "backbone": true,
      "suspended_anchor_atom": null,
      "suspended_reason": null,
      "source_label": "F12/fragments[0]",
      "marker_id": "35",
      "side": "right",
      "connection_group": "$a",
      "marker_type_index": 2
    },
    {
      "id": 20,
      "bracket_kind": "backbone",
      "pairing_id": "F11/fragments[0]",
      "group_id": ">1:4",
      "ru_midpoint": [
        1.6537581429223804,
        6.038872771156118
      ],
      "bond_midpoint": [
        1.6180428689328457,
        3.0078827610130827
      ],
      "orientation_vector": [
        1.0,
        0.0
      ],
      "half_bracket_size": 0.5001001599500269,
      "bond": [
        127,
        135
      ],
      "fragment": "F11",
      "backbone": true,
      "suspended_anchor_atom": null,
      "suspended_reason": null,
      "source_label": "F11/fragments[0]",
      "marker_id": "0",
      "side": "left",
      "connection_group": ">1",
      "marker_type_index": 4
    },
    {
      "id": 21,
      "bracket_kind": "backbone",
      "pairing_id": "F11/fragments[0]",
      "group_id": "<1:3",
      "ru_midpoint": [
        1.6537581429223804,
        6.038872771156118
      ],
      "bond_midpoint": [
        1.6180196627718035,
        9.069845746784985
      ],
      "orientation_vector": [
        1.0,
        0.0
      ],
      "half_bracket_size": 0.5001001599500269,
      "bond": [
        128,
        142
      ],
      "fragment": "F11",
      "backbone": true,
      "suspended_anchor_atom": null,
      "suspended_reason": null,
      "source_label": "F11/fragments[0]",
      "marker_id": "9",
      "side": "right",
      "connection_group": "<1",
      "marker_type_index": 3
    },
    {
      "id": 22,
      "bracket_kind": "backbone",
      "pairing_id": "F10/fragments[0]",
      "group_id": "$a:2",
      "ru_midpoint": [
        1.118020093813127,
        -12.062509705720352
      ],
      "bond_midpoint": [
        1.1180388921796256,
        -10.835490529554704
      ],
      "orientation_vector": [
        -1.0,
        0.0
      ],
      "half_bracket_size": 0.49990016001536364,
      "bond": [
        81,
        114
      ],
      "fragment": "F10",
      "backbone": true,
      "suspended_anchor_atom": null,
      "suspended_reason": null,
      "source_label": "F10/fragments[0]",
      "marker_id": "0",
      "side": "left",
      "connection_group": "$a",
      "marker_type_index": 2
    },
    {
      "id": 23,
      "bracket_kind": "backbone",
      "pairing_id": "F10/fragments[0]",
      "group_id": "$a:2",
      "ru_midpoint": [
        1.118020093813127,
        -12.062509705720352
      ],
      "bond_midpoint": [
        1.1180012954466274,
        -12.928542553761002
      ],
      "orientation_vector": [
        -1.0,
        0.0
      ],
      "half_bracket_size": 0.49990016001536364,
      "bond": [
        71,
        115
      ],
      "fragment": "F10",
      "backbone": true,
      "suspended_anchor_atom": null,
      "suspended_reason": null,
      "source_label": "F10/fragments[0]",
      "marker_id": "14",
      "side": "right",
      "connection_group": "$a",
      "marker_type_index": 2
    }
  ]
}
