
     RDKit          2D

  0  0  0  0  0  0  0  0  0  0999 V3000
M  V30 BEGIN CTAB
M  V30 COUNTS 134 133 8 0 0
M  V30 BEGIN ATOM
M  V30 1 N -5.906771 -0.255500 0.000000 0
M  V30 2 C -6.772882 0.244400 0.000000 0
M  V30 3 C -7.639002 -0.255500 0.000000 0
M  V30 4 C -8.505114 0.244400 0.000000 0
M  V30 5 N -9.371118 -0.255500 0.000000 0
M  V30 6 C -5.906771 -1.255500 0.000000 0
M  V30 7 C -5.040771 -1.755393 0.000000 0
M  V30 8 C -5.040771 -2.755394 0.000000 0
M  V30 9 N -4.174770 -3.255487 0.000000 0
M  V30 10 C -3.338649 0.244400 0.000000 0
M  V30 11 C -2.472537 -0.255500 0.000000 0
M  V30 12 C -1.606417 0.244400 0.000000 0
M  V30 13 C -0.740306 -0.255500 0.000000 0
M  V30 14 N 1.827816 0.244400 0.000000 0
M  V30 15 C 1.827816 -0.755600 0.000000 0
M  V30 16 C 0.961816 -1.255508 0.000000 0
M  V30 17 C 0.961816 -2.255508 0.000000 0
M  V30 18 N 0.095816 -2.755415 0.000000 0
M  V30 19 C 2.693928 -0.255500 0.000000 0
M  V30 20 C 3.559932 0.244400 0.000000 0
M  V30 21 C 4.425928 -0.255500 0.000000 0
M  V30 22 N 8.332557 0.244400 0.000000 0
M  V30 23 C -10.237114 0.244400 0.000000 0
M  V30 24 C -11.103110 -0.255700 0.000000 0
M  V30 25 C -11.969115 0.244400 0.000000 0
M  V30 26 N -12.835111 -0.255700 0.000000 0
M  V30 27 H -16.299364 -0.255688 0.000000 0
M  V30 28 C -13.701156 0.244266 0.000000 0
M  V30 29 O -13.701149 1.244197 0.000000 0
M  V30 30 C -14.567230 -0.255700 0.000000 0
M  V30 31 C -14.567230 -1.255701 0.000000 0
M  V30 32 C -15.433230 -1.755594 0.000000 0
M  V30 33 C -15.433230 -2.755594 0.000000 0
M  V30 34 C -16.299230 -3.255687 0.000000 0
M  V30 35 N -16.299230 -4.255687 0.000000 0
M  V30 36 N -15.433312 0.244266 0.000000 0
M  V30 37 C -9.371118 -1.255500 0.000000 0
M  V30 38 C -9.871218 -2.121497 0.000000 0
M  V30 39 C -9.371118 -2.987501 0.000000 0
M  V30 40 N -9.871218 -3.853497 0.000000 0
M  V30 41 H -9.871206 -7.317750 0.000000 0
M  V30 42 C -9.371253 -4.719542 0.000000 0
M  V30 43 O -8.371321 -4.719535 0.000000 0
M  V30 44 C -9.871219 -5.585616 0.000000 0
M  V30 45 C -10.871219 -5.585616 0.000000 0
M  V30 46 C -11.371112 -6.451616 0.000000 0
M  V30 47 C -12.371112 -6.451616 0.000000 0
M  V30 48 C -12.871205 -7.317616 0.000000 0
M  V30 49 N -13.871205 -7.317616 0.000000 0
M  V30 50 N -9.371253 -6.451698 0.000000 0
M  V30 51 C -4.174770 -4.255487 0.000000 0
M  V30 52 C -4.674870 -5.121483 0.000000 0
M  V30 53 C -4.174770 -5.987488 0.000000 0
M  V30 54 N -4.674870 -6.853484 0.000000 0
M  V30 55 H -4.674858 -10.317737 0.000000 0
M  V30 56 C -4.174905 -7.719529 0.000000 0
M  V30 57 O -3.174973 -7.719522 0.000000 0
M  V30 58 C -4.674871 -8.585602 0.000000 0
M  V30 59 C -5.674871 -8.585602 0.000000 0
M  V30 60 C -6.174764 -9.451603 0.000000 0
M  V30 61 C -7.174764 -9.451603 0.000000 0
M  V30 62 C -7.674857 -10.317603 0.000000 0
M  V30 63 N -8.674858 -10.317603 0.000000 0
M  V30 64 N -4.174905 -9.451684 0.000000 0
M  V30 65 C -3.308770 -2.755379 0.000000 0
M  V30 66 C -2.442774 -3.255480 0.000000 0
M  V30 67 C -1.576769 -2.755379 0.000000 0
M  V30 68 N -0.710773 -3.255480 0.000000 0
M  V30 69 H 2.753480 -3.255467 0.000000 0
M  V30 70 C 0.155272 -2.755514 0.000000 0
M  V30 71 O 0.155265 -1.755582 0.000000 0
M  V30 72 C 1.021345 -3.255480 0.000000 0
M  V30 73 C 1.021345 -4.255480 0.000000 0
M  V30 74 C 1.887346 -4.755373 0.000000 0
M  V30 75 C 1.887346 -5.755373 0.000000 0
M  V30 76 C 2.753346 -6.255466 0.000000 0
M  V30 77 N 2.753346 -7.255467 0.000000 0
M  V30 78 N 1.887427 -2.755514 0.000000 0
M  V30 79 C 0.095816 -3.755416 0.000000 0
M  V30 80 C -0.404285 -4.621412 0.000000 0
M  V30 81 C 0.095816 -5.487416 0.000000 0
M  V30 82 N -0.404285 -6.353412 0.000000 0
M  V30 83 H -0.404272 -9.817665 0.000000 0
M  V30 84 C 0.095681 -7.219457 0.000000 0
M  V30 85 O 1.095613 -7.219450 0.000000 0
M  V30 86 C -0.404285 -8.085531 0.000000 0
M  V30 87 C -1.404285 -8.085531 0.000000 0
M  V30 88 C -1.904178 -8.951531 0.000000 0
M  V30 89 C -2.904178 -8.951531 0.000000 0
M  V30 90 C -3.404271 -9.817532 0.000000 0
M  V30 91 N -4.404272 -9.817532 0.000000 0
M  V30 92 N 0.095681 -8.951613 0.000000 0
M  V30 93 C -0.770185 -2.255522 0.000000 0
M  V30 94 C -1.636181 -2.755623 0.000000 0
M  V30 95 C -2.502185 -2.255522 0.000000 0
M  V30 96 N -3.368181 -2.755623 0.000000 0
M  V30 97 H -6.832434 -2.755610 0.000000 0
M  V30 98 C -4.234227 -2.255657 0.000000 0
M  V30 99 O -4.234220 -1.255725 0.000000 0
M  V30 100 C -5.100300 -2.755623 0.000000 0
M  V30 101 C -5.100300 -3.755623 0.000000 0
M  V30 102 C -5.966300 -4.255516 0.000000 0
M  V30 103 C -5.966300 -5.255516 0.000000 0
M  V30 104 C -6.832301 -5.755609 0.000000 0
M  V30 105 N -6.832301 -6.755610 0.000000 0
M  V30 106 N -5.966382 -2.255657 0.000000 0
M  V30 107 C 8.332557 -0.755525 0.000000 0
M  V30 108 C 7.832457 -1.621521 0.000000 0
M  V30 109 C 8.332557 -2.487525 0.000000 0
M  V30 110 N 7.832457 -3.353521 0.000000 0
M  V30 111 H 7.832469 -6.817774 0.000000 0
M  V30 112 C 8.332423 -4.219567 0.000000 0
M  V30 113 O 9.332355 -4.219560 0.000000 0
M  V30 114 C 7.832457 -5.085640 0.000000 0
M  V30 115 C 6.832457 -5.085640 0.000000 0
M  V30 116 C 6.332564 -5.951640 0.000000 0
M  V30 117 C 5.332564 -5.951640 0.000000 0
M  V30 118 C 4.832471 -6.817641 0.000000 0
M  V30 119 N 3.832470 -6.817641 0.000000 0
M  V30 120 N 8.332423 -5.951722 0.000000 0
M  V30 121 C 9.198641 -0.255500 0.000000 0
M  V30 122 C 10.064637 0.244600 0.000000 0
M  V30 123 C 10.930641 -0.255500 0.000000 0
M  V30 124 N 11.796637 0.244600 0.000000 0
M  V30 125 H 15.260890 0.244588 0.000000 0
M  V30 126 C 12.662683 -0.255366 0.000000 0
M  V30 127 O 12.662676 -1.255298 0.000000 0
M  V30 128 C 13.528756 0.244600 0.000000 0
M  V30 129 C 13.528756 1.244600 0.000000 0
M  V30 130 C 14.394757 1.744493 0.000000 0
M  V30 131 C 14.394757 2.744494 0.000000 0
M  V30 132 C 15.260757 3.244587 0.000000 0
M  V30 133 N 15.260757 4.244587 0.000000 0
M  V30 134 N 14.394838 -0.255366 0.000000 0
M  V30 END ATOM
M  V30 BEGIN BOND
M  V30 1 1 1 2
M  V30 2 1 2 3
M  V30 3 1 3 4
M  V30 4 1 4 5
M  V30 5 1 1 6
M  V30 6 1 6 7
M  V30 7 1 7 8
M  V30 8 1 8 9
M  V30 9 1 1 10
M  V30 10 1 10 11
M  V30 11 1 11 12
M  V30 12 1 12 13
M  V30 13 1 13 14
M  V30 14 1 14 15
M  V30 15 1 15 16
M  V30 16 1 16 17
M  V30 17 1 17 18
M  V30 18 1 14 19
M  V30 19 1 19 20
M  V30 20 1 20 21
M  V30 21 1 21 22
M  V30 22 1 23 24
M  V30 23 1 24 25
M  V30 24 1 25 26
M  V30 25 2 28 29
M  V30 26 1 28 30
M  V30 27 1 30 31
M  V30 28 1 31 32
M  V30 29 1 32 33
M  V30 30 1 33 34
M  V30 31 1 34 35
M  V30 32 1 30 36
M  V30 33 1 26 28
M  V30 34 1 27 36
M  V30 35 1 5 23
M  V30 36 1 37 38
M  V30 37 1 38 39
M  V30 38 1 39 40
M  V30 39 2 42 43
M  V30 40 1 42 44
M  V30 41 1 44 45
M  V30 42 1 45 46
M  V30 43 1 46 47
M  V30 44 1 47 48
M  V30 45 1 48 49
M  V30 46 1 44 50
M  V30 47 1 40 42
M  V30 48 1 41 50
M  V30 49 1 5 37
M  V30 50 1 51 52
M  V30 51 1 52 53
M  V30 52 1 53 54
M  V30 53 2 56 57
M  V30 54 1 56 58
M  V30 55 1 58 59
M  V30 56 1 59 60
M  V30 57 1 60 61
M  V30 58 1 61 62
M  V30 59 1 62 63
M  V30 60 1 58 64
M  V30 61 1 54 56
M  V30 62 1 55 64
M  V30 63 1 9 51
M  V30 64 1 65 66
M  V30 65 1 66 67
M  V30 66 1 67 68
M  V30 67 2 70 71
M  V30 68 1 70 72
M  V30 69 1 72 73
M  V30 70 1 73 74
M  V30 71 1 74 75
M  V30 72 1 75 76
M  V30 73 1 76 77
M  V30 74 1 72 78
M  V30 75 1 68 70
M  V30 76 1 69 78
M  V30 77 1 9 65
M  V30 78 1 79 80
M  V30 79 1 80 81
M  V30 80 1 81 82
M  V30 81 2 84 85
M  V30 82 1 84 86
M  V30 83 1 86 87
M  V30 84 1 87 88
M  V30 85 1 88 89
M  V30 86 1 89 90
M  V30 87 1 90 91
M  V30 88 1 86 92
M  V30 89 1 82 84
M  V30 90 1 83 92
M  V30 91 1 18 79
M  V30 92 1 93 94
M  V30 93 1 94 95
M  V30 94 1 95 96
M  V30 95 2 98 99
M  V30 96 1 98 100
M  V30 97 1 100 101
M  V30 98 1 101 102
M  V30 99 1 102 103
M  V30 100 1 103 104
M  V30 101 1 104 105
M  V30 102 1 100 106
M  V30 103 1 96 98
M  V30 104 1 97 106
M  V30 105 1 18 93
M  V30 106 1 107 108
M  V30 107 1 108 109
M  V30 108 1 109 110
M  V30 109 2 112 113
M  V30 110 1 112 114
M  V30 111 1 114 115
M  V30 112 1 115 116
M  V30 113 1 116 117
M  V30 114 1 117 118
M  V30 115 1 118 119
M  V30 116 1 114 120
M  V30 117 1 110 112
M  V30 118 1 111 120
M  V30 119 1 22 107
M  V30 120 1 121 122
M  V30 121 1 122 123
M  V30 122 1 123 124
M  V30 123 2 126 127
M  V30 124 1 126 128
M  V30 125 1 128 129
M  V30 126 1 129 130
M  V30 127 1 130 131
M  V30 128 1 131 132
M  V30 129 1 132 133
M  V30 130 1 128 134
M  V30 131 1 124 126
M  V30 132 1 125 134
M  V30 133 1 22 121
M  V30 END BOND
M  V30 BEGIN SGROUP
M  V30 1 SRU 0 ATOMS=(4 26 27 28 36) CBONDS=(2 33 34) -
M  V30 BRKXYZ=(9 -13.2681 0.4942 0 -13.2681 -0.5057 0 0 0 0) BRKXYZ=(9 -15.866-
M  V30 3 0.4943 0 -15.8663 -0.5057 0 0 0 0)
M  V30 2 SRU 0 ATOMS=(4 124 125 126 134) CBONDS=(2 131 132) -
M  V30 BRKXYZ=(9 12.2297 -0.5053 0 12.2297 0.4946 0 0 0 0) BRKXYZ=(9 14.8279 --
M  V30 0.5054 0 14.8279 0.4946 0 0 0 0)
M  V30 3 SRU 0 ATOMS=(4 110 111 112 120) CBONDS=(2 117 118) -
M  V30 BRKXYZ=(9 8.5824 -3.7865 0 7.5825 -3.7865 0 0 0 0) BRKXYZ=(9 8.5824 -6.-
M  V30 3847 0 7.5825 -6.3847 0 0 0 0)
M  V30 4 SRU 0 ATOMS=(4 96 97 98 106) CBONDS=(2 103 104) -
M  V30 BRKXYZ=(9 -3.8012 -2.0057 0 -3.8012 -3.0056 0 0 0 0) BRKXYZ=(9 -6.3994 -
M  V30 -2.0057 0 -6.3994 -3.0056 0 0 0 0)
M  V30 5 SRU 0 ATOMS=(4 82 83 84 92) CBONDS=(2 89 90) -
M  V30 BRKXYZ=(9 0.3457 -6.7864 0 -0.6543 -6.7864 0 0 0 0) BRKXYZ=(9 0.3457 -9-
M  V30 .3846 0 -0.6543 -9.3846 0 0 0 0)
M  V30 6 SRU 0 ATOMS=(4 68 69 70 78) CBONDS=(2 75 76) -
M  V30 BRKXYZ=(9 -0.2778 -2.5055 0 -0.2778 -3.5055 0 0 0 0) BRKXYZ=(9 2.3205 --
M  V30 2.5055 0 2.3205 -3.5055 0 0 0 0)
M  V30 7 SRU 0 ATOMS=(4 54 55 56 64) CBONDS=(2 61 62) -
M  V30 BRKXYZ=(9 -3.9249 -7.2865 0 -4.9249 -7.2865 0 0 0 0) BRKXYZ=(9 -3.9249 -
M  V30 -9.8847 0 -4.9248 -9.8847 0 0 0 0)
M  V30 8 SRU 0 ATOMS=(4 40 41 42 50) CBONDS=(2 47 48) -
M  V30 BRKXYZ=(9 -9.1213 -4.2865 0 -10.1212 -4.2865 0 0 0 0) BRKXYZ=(9 -9.1213-
M  V30  -6.8847 0 -10.1212 -6.8847 0 0 0 0)
M  V30 END SGROUP
M  V30 END CTAB
M  END
>  <BIGSMILES_BRACKET_RECORDS_JSON>
{
  "records": [
    {
      "id": 0,
      "bracket_kind": "backbone",
      "pairing_id": "F9/fragments[0]",
      "group_id": ">1:4",
      "ru_midpoint": [
        -14.567232603136395,
        0.0776102991554072
      ],
      "bond_midpoint": [
        -13.268133647160754,
        -0.005717275623696005
      ],
      "orientation_vector": [
        0.0,
        1.0
      ],
      "half_bracket_size": 0.49996592864168043,
      "bond": [
        25,
        27
      ],
      "fragment": "F9",
      "backbone": true,
      "suspended_anchor_atom": null,
      "suspended_reason": null,
      "source_label": "F9/fragments[0]",
      "marker_id": "0",
      "side": "left",
      "connection_group": ">1",
      "marker_type_index": 4
    },
    {
      "id": 1,
      "bracket_kind": "backbone",
      "pairing_id": "F9/fragments[0]",
      "group_id": "<1:3",
      "ru_midpoint": [
        -14.567232603136395,
        0.0776102991554072
      ],
      "bond_midpoint": [
        -15.866337896536207,
        -0.005711191266324411
      ],
      "orientation_vector": [
        0.0,
        1.0
      ],
      "half_bracket_size": 0.49996592864168043,
      "bond": [
        26,
        35
      ],
      "fragment": "F9",
      "backbone": true,
      "suspended_anchor_atom": null,
      "suspended_reason": null,
      "source_label": "F9/fragments[0]",
      "marker_id": "10",
      "side": "right",
      "connection_group": "<1",
      "marker_type_index": 3
    },
    {
      "id": 2,
      "bracket_kind": "backbone",
      "pairing_id": "F16/fragments[0]",
      "group_id": ">1:4",
      "ru_midpoint": [
        13.528765188214981,
        0.044613788467012694
      ],
      "bond_midpoint": [
        12.2296600463791,
        -0.0053828843916653435
      ],
      "orientation_vector": [
        0.0,
        -1.0
      ],
      "half_bracket_size": 0.49996592864168043,
      "bond": [
        123,
        125
      ],
      "fragment": "F16",
      "backbone": true,
      "suspended_anchor_atom": null,
      "suspended_reason": null,
      "source_label": "F16/fragments[0]",
      "marker_id": "0",
      "side": "left",
      "connection_group": ">1",
      "marker_type_index": 4
    },
    {
      "id": 3,
      "bracket_kind": "backbone",
      "pairing_id": "F16/fragments[0]",
      "group_id": "<1:3",
      "ru_midpoint": [
        13.528765188214981,
        0.044613788467012694
      ],
      "bond_midpoint": [
        14.827864295754553,
        -0.005388968749036938
      ],
      "orientation_vector": [
        0.0,
        -1.0
      ],
      "half_bracket_size": 0.49996592864168043,
      "bond": [
        124,
        133
      ],
      "fragment": "F16",
      "backbone": true,
      "suspended_anchor_atom": null,
      "suspended_reason": null,
      "source_label": "F16/fragments[0]",
      "marker_id": "10",
      "side": "right",
      "connection_group": "<1",
      "marker_type_index": 3
    },
    {
      "id": 4,
      "bracket_kind": "backbone",
      "pairing_id": "F15/fragments[0]",
      "group_id": ">1:4",
      "ru_midpoint": [
        8.165767743265674,
        -5.0856429471836675
      ],
      "bond_midpoint": [
        8.08244016848657,
        -3.7865439912080268
      ],
      "orientation_vector": [
        1.0,
        0.0
      ],
      "half_bracket_size": 0.49996592864168043,
      "bond": [
        109,
        111
      ],
      "fragment": "F15",
      "backbone": true,
      "suspended_anchor_atom": null,
      "suspended_reason": null,
      "source_label": "F15/fragments[0]",
      "marker_id": "0",
      "side": "left",
      "connection_group": ">1",
      "marker_type_index": 4
    },
    {
      "id": 5,
      "bracket_kind": "backbone",
      "pairing_id": "F15/fragments[0]",
      "group_id": "<1:3",
      "ru_midpoint": [
        8.165767743265674,
        -5.0856429471836675
      ],
      "bond_midpoint": [
        8.08244625284394,
        -6.384748240583479
      ],
      "orientation_vector": [
        1.0,
        0.0
      ],
      "half_bracket_size": 0.49996592864168043,
      "bond": [
        110,
        119
      ],
      "fragment": "F15",
      "backbone": true,
      "suspended_anchor_atom": null,
      "suspended_reason": null,
      "source_label": "F15/fragments[0]",
      "marker_id": "10",
      "side": "right",
      "connection_group": "<1",
      "marker_type_index": 3
    },
    {
      "id": 6,
      "bracket_kind": "backbone",
      "pairing_id": "F14/fragments[0]",
      "group_id": ">1:4",
      "ru_midpoint": [
        -5.100302910787723,
        -2.4223121008695525
      ],
      "bond_midpoint": [
        -3.801203954812083,
        -2.5056396756486556
      ],
      "orientation_vector": [
        0.0,
        1.0
      ],
      "half_bracket_size": 0.49996592864168043,
      "bond": [
        95,
        97
      ],
      "fragment": "F14",
      "backbone": true,
      "suspended_anchor_atom": null,
      "suspended_reason": null,
      "source_label": "F14/fragments[0]",
      "marker_id": "0",
      "side": "left",
      "connection_group": ">1",
      "marker_type_index": 4
    },
    {
      "id": 7,
      "bracket_kind": "backbone",
      "pairing_id": "F14/fragments[0]",
      "group_id": "<1:3",
      "ru_midpoint": [
        -5.100302910787723,
        -2.4223121008695525
      ],
      "bond_midpoint": [
        -6.3994082041875355,
        -2.505633591291284
      ],
      "orientation_vector": [
        0.0,
        1.0
      ],
      "half_bracket_size": 0.49996592864168043,
      "bond": [
        96,
        105
      ],
      "fragment": "F14",
      "backbone": true,
      "suspended_anchor_atom": null,
      "suspended_reason": null,
      "source_label": "F14/fragments[0]",
      "marker_id": "10",
      "side": "right",
      "connection_group": "<1",
      "marker_type_index": 3
    },
    {
      "id": 8,
      "bracket_kind": "backbone",
      "pairing_id": "F13/fragments[0]",
      "group_id": ">1:4",
      "ru_midpoint": [
        -0.07097409874098932,
        -8.085533830070588
      ],
      "bond_midpoint": [
        -0.15430167352009205,
        -6.786434874094947
      ],
      "orientation_vector": [
        1.0,
        0.0
      ],
      "half_bracket_size": 0.49996592864168043,
      "bond": [
        81,
        83
      ],
      "fragment": "F13",
      "backbone": true,
      "suspended_anchor_atom": null,
      "suspended_reason": null,
      "source_label": "F13/fragments[0]",
      "marker_id": "0",
      "side": "left",
      "connection_group": ">1",
      "marker_type_index": 4
    },
    {
      "id": 9,
      "bracket_kind": "backbone",
      "pairing_id": "F13/fragments[0]",
      "group_id": "<1:3",
      "ru_midpoint": [
        -0.07097409874098932,
        -8.085533830070588
      ],
      "bond_midpoint": [
        -0.15429558916272124,
        -9.3846391234704
      ],
      "orientation_vector": [
        1.0,
        0.0
      ],
      "half_bracket_size": 0.49996592864168043,
      "bond": [
        82,
        91
      ],
      "fragment": "F13",
      "backbone": true,
      "suspended_anchor_atom": null,
      "suspended_reason": null,
      "source_label": "F13/fragments[0]",
      "marker_id": "10",
      "side": "right",
      "connection_group": "<1",
      "marker_type_index": 3
    },
    {
      "id": 10,
      "bracket_kind": "backbone",
      "pairing_id": "F12/fragments[0]",
      "group_id": ">1:4",
      "ru_midpoint": [
        1.0213481998816218,
        -2.9221690608987374
      ],
      "bond_midpoint": [
        -0.27775075609401867,
        -3.005496635677841
      ],
      "orientation_vector": [
        0.0,
        1.0
      ],
      "half_bracket_size": 0.49996592864168043,
      "bond": [
        67,
        69
      ],
      "fragment": "F12",
      "backbone": true,
      "suspended_anchor_atom": null,
      "suspended_reason": null,
      "source_label": "F12/fragments[0]",
      "marker_id": "0",
      "side": "left",
      "connection_group": ">1",
      "marker_type_index": 4
    },
    {
      "id": 11,
      "bracket_kind": "backbone",
      "pairing_id": "F12/fragments[0]",
      "group_id": "<1:3",
      "ru_midpoint": [
        1.0213481998816218,
        -2.9221690608987374
      ],
      "bond_midpoint": [
        2.3204534932814336,
        -3.0054905513204693
      ],
      "orientation_vector": [
        0.0,
        1.0
      ],
      "half_bracket_size": 0.49996592864168043,
      "bond": [
        68,
        77
      ],
      "fragment": "F12",
      "backbone": true,
      "suspended_anchor_atom": null,
      "suspended_reason": null,
      "source_label": "F12/fragments[0]",
      "marker_id": "10",
      "side": "right",
      "connection_group": "<1",
      "marker_type_index": 3
    },
    {
      "id": 12,
      "bracket_kind": "backbone",
      "pairing_id": "F11/fragments[0]",
      "group_id": ">1:4",
      "ru_midpoint": [
        -4.341560013854299,
        -8.585605190031165
      ],
      "bond_midpoint": [
        -4.4248875886334025,
        -7.286506234055524
      ],
      "orientation_vector": [
        1.0,
        0.0
      ],
      "half_bracket_size": 0.49996592864168043,
      "bond": [
        53,
        55
      ],
      "fragment": "F11",
      "backbone": true,
      "suspended_anchor_atom": null,
      "suspended_reason": null,
      "source_label": "F11/fragments[0]",
      "marker_id": "0",
      "side": "left",
      "connection_group": ">1",
      "marker_type_index": 4
    },
    {
      "id": 13,
      "bracket_kind": "backbone",
      "pairing_id": "F11/fragments[0]",
      "group_id": "<1:3",
      "ru_midpoint": [
        -4.341560013854299,
        -8.585605190031165
      ],
      "bond_midpoint": [
        -4.424881504276032,
        -9.884710483430975
      ],
      "orientation_vector": [
        1.0,
        0.0
      ],
      "half_bracket_size": 0.49996592864168043,
      "bond": [
        54,
        63
      ],
      "fragment": "F11",
      "backbone": true,
      "suspended_anchor_atom": null,
      "suspended_reason": null,
      "source_label": "F11/fragments[0]",
      "marker_id": "10",
      "side": "right",
      "connection_group": "<1",
      "marker_type_index": 3
    },
    {
      "id": 14,
      "bracket_kind": "backbone",
      "pairing_id": "F10/fragments[0]",
      "group_id": ">1:4",
      "ru_midpoint": [
        -9.537907947270844,
        -5.585618630026709
      ],
      "bond_midpoint": [
        -9.621235522049947,
        -4.286519674051069
      ],
      "orientation_vector": [
        1.0,
        0.0
      ],
      "half_bracket_size": 0.49996592864168043,
      "bond": [
        39,
        41
      ],
      "fragment": "F10",
      "backbone": true,
      "suspended_anchor_atom": null,
      "suspended_reason": null,
      "source_label": "F10/fragments[0]",
      "marker_id": "0",
      "side": "left",
      "connection_group": ">1",
      "marker_type_index": 4
    },
    {
      "id": 15,
      "bracket_kind": "backbone",
      "pairing_id": "F10/fragments[0]",
      "group_id": "<1:3",
      "ru_midpoint": [
        -9.537907947270844,
        -5.585618630026709
      ],
      "bond_midpoint": [
        -9.621229437692577,
        -6.884723923426522
      ],
      "orientation_vector": [
        1.0,
        0.0
      ],
      "half_bracket_size": 0.49996592864168043,
      "bond": [
        40,
        49
      ],
      "fragment": "F10",
      "backbone": true,
      "suspended_anchor_atom": null,
      "suspended_reason": null,
      "source_label": "F10/fragments[0]",
      "marker_id": "10",
      "side": "right",
      "connection_group": "<1",
      "marker_type_index": 3
    }
  ]
}
