
     RDKit          2D

  0  0  0  0  0  0  0  0  0  0999 V3000
M  V30 BEGIN CTAB
M  V30 COUNTS 41 40 4 0 0
M  V30 BEGIN ATOM
M  V30 1 C 1.367999 1.597681 0.000000 0
M  V30 2 C 0.502000 1.097696 0.000000 0
M  V30 3 O -6.425924 1.097649 0.000000 0
M  V30 4 O -0.363975 1.597784 0.000000 0
M  V30 5 C -1.229979 1.097684 0.000000 0
M  V30 6 O -1.229981 0.097683 0.000000 0
M  V30 7 C -2.095975 1.597784 0.000000 0
M  V30 8 C -2.961980 1.097684 0.000000 0
M  V30 9 C -3.827976 1.597784 0.000000 0
M  V30 10 C -4.693980 1.097684 0.000000 0
M  V30 11 C -5.559976 1.597784 0.000000 0
M  V30 12 C 1.367999 0.373071 0.000000 0
M  V30 13 O 1.368045 -6.554853 0.000000 0
M  V30 14 O 0.867911 -0.492903 0.000000 0
M  V30 15 C 1.368011 -1.358908 0.000000 0
M  V30 16 O 2.368012 -1.358910 0.000000 0
M  V30 17 C 0.867911 -2.224904 0.000000 0
M  V30 18 C 1.368011 -3.090909 0.000000 0
M  V30 19 C 0.867911 -3.956905 0.000000 0
M  V30 20 C 1.368011 -4.822909 0.000000 0
M  V30 21 C 0.867911 -5.688905 0.000000 0
M  V30 22 C 1.367999 2.597681 0.000000 0
M  V30 23 O 1.367953 9.525605 0.000000 0
M  V30 24 O 1.868087 3.463655 0.000000 0
M  V30 25 C 1.367987 4.329660 0.000000 0
M  V30 26 O 0.367986 4.329662 0.000000 0
M  V30 27 C 1.868087 5.195656 0.000000 0
M  V30 28 C 1.367987 6.061660 0.000000 0
M  V30 29 C 1.868087 6.927656 0.000000 0
M  V30 30 C 1.367987 7.793661 0.000000 0
M  V30 31 C 1.868087 8.659657 0.000000 0
M  V30 32 C 2.234027 1.097696 0.000000 0
M  V30 33 O 9.161951 1.097649 0.000000 0
M  V30 34 O 3.100001 1.597784 0.000000 0
M  V30 35 C 3.966006 1.097684 0.000000 0
M  V30 36 O 3.966008 0.097683 0.000000 0
M  V30 37 C 4.832002 1.597784 0.000000 0
M  V30 38 C 5.698006 1.097684 0.000000 0
M  V30 39 C 6.564002 1.597784 0.000000 0
M  V30 40 C 7.430007 1.097684 0.000000 0
M  V30 41 C 8.296003 1.597784 0.000000 0
M  V30 END ATOM
M  V30 BEGIN BOND
M  V30 1 1 4 5
M  V30 2 2 5 6
M  V30 3 1 5 7
M  V30 4 1 7 8
M  V30 5 1 8 9
M  V30 6 1 9 10
M  V30 7 1 10 11
M  V30 8 1 2 4
M  V30 9 1 3 11
M  V30 10 1 1 2
M  V30 11 1 14 15
M  V30 12 2 15 16
M  V30 13 1 15 17
M  V30 14 1 17 18
M  V30 15 1 18 19
M  V30 16 1 19 20
M  V30 17 1 20 21
M  V30 18 1 12 14
M  V30 19 1 13 21
M  V30 20 1 1 12
M  V30 21 1 24 25
M  V30 22 2 25 26
M  V30 23 1 25 27
M  V30 24 1 27 28
M  V30 25 1 28 29
M  V30 26 1 29 30
M  V30 27 1 30 31
M  V30 28 1 22 24
M  V30 29 1 23 31
M  V30 30 1 1 22
M  V30 31 1 34 35
M  V30 32 2 35 36
M  V30 33 1 35 37
M  V30 34 1 37 38
M  V30 35 1 38 39
M  V30 36 1 39 40
M  V30 37 1 40 41
M  V30 38 1 32 34
M  V30 39 1 33 41
M  V30 40 1 1 32
M  V30 END BOND
M  V30 BEGIN SGROUP
M  V30 1 SRU 0 ATOMS=(4 32 33 34 41) CBONDS=(2 38 39) -
M  V30 BRKXYZ=(9 2.6670 1.8478 0 2.6670 0.8476 0 0 0 0) BRKXYZ=(9 8.7290 1.847-
M  V30 8 0 8.7290 0.8476 0 0 0 0)
M  V30 2 SRU 0 ATOMS=(4 22 23 24 31) CBONDS=(2 28 29) -
M  V30 BRKXYZ=(9 2.1181 3.0307 0 1.1179 3.0307 0 0 0 0) BRKXYZ=(9 2.1181 9.092-
M  V30 6 0 1.1179 9.0926 0 0 0 0)
M  V30 3 SRU 0 ATOMS=(4 12 13 14 21) CBONDS=(2 18 19) -
M  V30 BRKXYZ=(9 0.6179 -0.0599 0 1.6181 -0.0599 0 0 0 0) BRKXYZ=(9 0.6179 -6.-
M  V30 1219 0 1.6181 -6.1219 0 0 0 0)
M  V30 4 SRU 0 ATOMS=(4 2 3 4 11) CBONDS=(2 8 9) -
M  V30 BRKXYZ=(9 0.0690 1.8478 0 0.0690 0.8476 0 0 0 0) BRKXYZ=(9 -5.9930 1.84-
M  V30 78 0 -5.9930 0.8476 0 0 0 0)
M  V30 END SGROUP
M  V30 END CTAB
M  END
>  <BIGSMILES_BRACKET_RECORDS_JSON>
{
  "records": [
    {
      "id": 0,
      "bracket_kind": "backbone",
      "pairing_id": "F8/fragments[0]",
      "group_id": ">1:4",
      "ru_midpoint": [
        5.697991591235668,
        1.3199502816358175
      ],
      "bond_midpoint": [
        2.66701389208563,
        1.3477397898621555
      ],
      "orientation_vector": [
        0.0,
        1.0
      ],
      "half_bracket_size": 0.5001001599500269,
      "bond": [
        31,
        33
      ],
      "fragment": "F8",
      "backbone": true,
      "suspended_anchor_atom": null,
      "suspended_reason": null,
      "source_label": "F8/fragments[0]",
      "marker_id": "0",
      "side": "left",
      "connection_group": ">1",
      "marker_type_index": 4
    },
    {
      "id": 1,
      "bracket_kind": "backbone",
      "pairing_id": "F8/fragments[0]",
      "group_id": "<1:3",
      "ru_midpoint": [
        5.697991591235668,
        1.3199502816358175
      ],
      "bond_midpoint": [
        8.728976877857534,
        1.3477165837011196
      ],
      "orientation_vector": [
        0.0,
        1.0
      ],
      "half_bracket_size": 0.5001001599500269,
      "bond": [
        32,
        40
      ],
      "fragment": "F8",
      "backbone": true,
      "suspended_anchor_atom": null,
      "suspended_reason": null,
      "source_label": "F8/fragments[0]",
      "marker_id": "9",
      "side": "right",
      "connection_group": "<1",
      "marker_type_index": 3
    },
    {
      "id": 2,
      "bracket_kind": "backbone",
      "pairing_id": "F7/fragments[0]",
      "group_id": ">1:4",
      "ru_midpoint": [
        1.5902533607065048,
        6.0616456499926015
      ],
      "bond_midpoint": [
        1.618042868932846,
        3.030667950842563
      ],
      "orientation_vector": [
        1.0,
        0.0
      ],
      "half_bracket_size": 0.5001001599500269,
      "bond": [
        21,
        23
      ],
      "fragment": "F7",
      "backbone": true,
      "suspended_anchor_atom": null,
      "suspended_reason": null,
      "source_label": "F7/fragments[0]",
      "marker_id": "0",
      "side": "left",
      "connection_group": ">1",
      "marker_type_index": 4
    },
    {
      "id": 3,
      "bracket_kind": "backbone",
      "pairing_id": "F7/fragments[0]",
      "group_id": "<1:3",
      "ru_midpoint": [
        1.5902533607065048,
        6.0616456499926015
      ],
      "bond_midpoint": [
        1.6180196627718035,
        9.092630936614468
      ],
      "orientation_vector": [
        1.0,
        0.0
      ],
      "half_bracket_size": 0.5001001599500269,
      "bond": [
        22,
        30
      ],
      "fragment": "F7",
      "backbone": true,
      "suspended_anchor_atom": null,
      "suspended_reason": null,
      "source_label": "F7/fragments[0]",
      "marker_id": "9",
      "side": "right",
      "connection_group": "<1",
      "marker_type_index": 3
    },
    {
      "id": 4,
      "bracket_kind": "backbone",
      "pairing_id": "F6/fragments[0]",
      "group_id": ">1:4",
      "ru_midpoint": [
        1.1457445492229468,
        -3.09089381367089
      ],
      "bond_midpoint": [
        1.1179550409966081,
        -0.059916114520852215
      ],
      "orientation_vector": [
        -1.0,
        0.0
      ],
      "half_bracket_size": 0.5001001599500269,
      "bond": [
        11,
        13
      ],
      "fragment": "F6",
      "backbone": true,
      "suspended_anchor_atom": null,
      "suspended_reason": null,
      "source_label": "F6/fragments[0]",
      "marker_id": "0",
      "side": "left",
      "connection_group": ">1",
      "marker_type_index": 4
    },
    {
      "id": 5,
      "bracket_kind": "backbone",
      "pairing_id": "F6/fragments[0]",
      "group_id": "<1:3",
      "ru_midpoint": [
        1.1457445492229468,
        -3.09089381367089
      ],
      "bond_midpoint": [
        1.1179782471576458,
        -6.121879100292756
      ],
      "orientation_vector": [
        -1.0,
        0.0
      ],
      "half_bracket_size": 0.5001001599500269,
      "bond": [
        12,
        20
      ],
      "fragment": "F6",
      "backbone": true,
      "suspended_anchor_atom": null,
      "suspended_reason": null,
      "source_label": "F6/fragments[0]",
      "marker_id": "9",
      "side": "right",
      "connection_group": "<1",
      "marker_type_index": 3
    },
    {
      "id": 6,
      "bracket_kind": "backbone",
      "pairing_id": "F5/fragments[0]",
      "group_id": ">1:4",
      "ru_midpoint": [
        -2.9619650443317456,
        1.3199502816358175
      ],
      "bond_midpoint": [
        0.06901265481829189,
        1.3477397898621555
      ],
      "orientation_vector": [
        0.0,
        1.0
      ],
      "half_bracket_size": 0.5001001599500269,
      "bond": [
        1,
        3
      ],
      "fragment": "F5",
      "backbone": true,
      "suspended_anchor_atom": null,
      "suspended_reason": null,
      "source_label": "F5/fragments[0]",
      "marker_id": "0",
      "side": "left",
      "connection_group": ">1",
      "marker_type_index": 4
    },
    {
      "id": 7,
      "bracket_kind": "backbone",
      "pairing_id": "F5/fragments[0]",
      "group_id": "<1:3",
      "ru_midpoint": [
        -2.9619650443317456,
        1.3199502816358175
      ],
      "bond_midpoint": [
        -5.992950330953612,
        1.3477165837011196
      ],
      "orientation_vector": [
        0.0,
        1.0
      ],
      "half_bracket_size": 0.5001001599500269,
      "bond": [
        2,
        10
      ],
      "fragment": "F5",
      "backbone": true,
      "suspended_anchor_atom": null,
      "suspended_reason": null,
      "source_label": "F5/fragments[0]",
      "marker_id": "9",
      "side": "right",
      "connection_group": "<1",
      "marker_type_index": 3
    }
  ]
}
