
     RDKit          2D

  0  0  0  0  0  0  0  0  0  0999 V3000
M  V30 BEGIN CTAB
M  V30 COUNTS 97 96 18 0 0
M  V30 BEGIN ATOM
M  V30 1 H -13.047678 0.840528 0.000000 0
M  V30 2 H 9.468170 0.840526 0.000000 0
M  V30 3 C -12.181695 1.340429 0.000000 0
M  V30 4 O -12.181686 2.340431 0.000000 0
M  V30 5 C -11.315712 0.840528 0.000000 0
M  V30 6 C -10.449692 1.340429 0.000000 0
M  V30 7 C -9.583593 0.840528 0.000000 0
M  V30 8 C -8.717258 1.340429 0.000000 0
M  V30 9 C -7.851159 0.840528 0.000000 0
M  V30 10 C -6.985138 1.340429 0.000000 0
M  V30 11 C -6.119155 0.840528 0.000000 0
M  V30 12 O -6.119165 -0.159474 0.000000 0
M  V30 13 C 2.540228 3.840464 0.000000 0
M  V30 14 C 1.674287 4.340437 0.000000 0
M  V30 15 O 0.808243 3.840464 0.000000 0
M  V30 16 C -0.057814 4.340437 0.000000 0
M  V30 17 C 2.540228 2.840464 0.000000 0
M  V30 18 O 1.674228 2.340393 0.000000 0
M  V30 19 C 1.674501 1.340347 0.000000 0
M  V30 20 O 4.762961 4.340437 0.000000 0
M  V30 21 C 6.985744 3.840464 0.000000 0
M  V30 22 C 6.985744 0.593296 0.000000 0
M  V30 23 O 6.119742 0.093363 0.000000 0
M  V30 24 C 6.119742 -0.906639 0.000000 0
M  V30 25 C 7.851801 4.340437 0.000000 0
M  V30 26 O 8.717780 3.840464 0.000000 0
M  V30 27 C 9.980694 4.340437 0.000000 0
M  V30 28 C -0.057814 5.340437 0.000000 0
M  V30 29 O 0.442286 6.206318 0.000000 0
M  V30 30 C 0.442340 9.670126 0.000000 0
M  V30 31 C -0.057760 10.536015 0.000000 0
M  V30 32 N 0.442340 11.402011 0.000000 0
M  V30 33 R -0.057760 12.268015 0.000000 3
M  V30 34 C -0.057798 7.072295 0.000000 0
M  V30 35 C 0.442302 7.938291 0.000000 0
M  V30 36 O -0.057798 8.804180 0.000000 0
M  V30 37 C 0.809186 4.838745 0.000000 0
M  V30 38 O 1.675067 4.338645 0.000000 0
M  V30 39 C 5.138875 4.338592 0.000000 0
M  V30 40 C 6.004763 4.838692 0.000000 0
M  V30 41 N 6.870759 4.338592 0.000000 0
M  V30 42 R 7.736764 4.838692 0.000000 3
M  V30 43 C 2.541044 4.838729 0.000000 0
M  V30 44 C 3.407040 4.338629 0.000000 0
M  V30 45 O 4.272929 4.838729 0.000000 0
M  V30 46 C 0.808500 0.840276 0.000000 0
M  V30 47 O -0.057380 1.340376 0.000000 0
M  V30 48 C -3.521188 1.340429 0.000000 0
M  V30 49 C -4.387077 0.840329 0.000000 0
M  V30 50 N -5.253073 1.340429 0.000000 0
M  V30 51 C -0.923357 0.840292 0.000000 0
M  V30 52 C -1.789353 1.340392 0.000000 0
M  V30 53 O -2.655242 0.840292 0.000000 0
M  V30 54 C 2.540601 0.840472 0.000000 0
M  V30 55 O 3.406482 1.340573 0.000000 0
M  V30 56 C 6.870289 1.340626 0.000000 0
M  V30 57 C 7.736178 0.840526 0.000000 0
M  V30 58 N 8.602174 1.340626 0.000000 0
M  V30 59 C 4.272458 0.840488 0.000000 0
M  V30 60 C 5.138454 1.340589 0.000000 0
M  V30 61 O 6.004343 0.840488 0.000000 0
M  V30 62 C 5.253740 -1.406572 0.000000 0
M  V30 63 O 4.387860 -0.906472 0.000000 0
M  V30 64 C 0.924052 -0.906418 0.000000 0
M  V30 65 C 0.058163 -1.406518 0.000000 0
M  V30 66 N -0.807833 -0.906418 0.000000 0
M  V30 67 R -1.673837 -1.406518 0.000000 3
M  V30 68 C 3.521883 -1.406556 0.000000 0
M  V30 69 C 2.655887 -0.906456 0.000000 0
M  V30 70 O 1.789998 -1.406556 0.000000 0
M  V30 71 C 6.985744 -1.406508 0.000000 0
M  V30 72 O 7.851624 -0.906408 0.000000 0
M  V30 73 C 11.315432 -0.906354 0.000000 0
M  V30 74 C 12.181321 -1.406454 0.000000 0
M  V30 75 N 13.047317 -0.906354 0.000000 0
M  V30 76 R 13.913321 -1.406454 0.000000 3
M  V30 77 C 8.717601 -1.406492 0.000000 0
M  V30 78 C 9.583597 -0.906392 0.000000 0
M  V30 79 O 10.449486 -1.406492 0.000000 0
M  V30 80 C 9.980694 5.340437 0.000000 0
M  V30 81 O 10.480794 6.206318 0.000000 0
M  V30 82 C 10.480848 9.670126 0.000000 0
M  V30 83 C 9.980748 10.536015 0.000000 0
M  V30 84 N 10.480848 11.402011 0.000000 0
M  V30 85 R 9.980748 12.268015 0.000000 3
M  V30 86 C 9.980710 7.072295 0.000000 0
M  V30 87 C 10.480810 7.938291 0.000000 0
M  V30 88 O 9.980710 8.804180 0.000000 0
M  V30 89 C 9.978694 3.340439 0.000000 0
M  V30 90 O 9.112813 3.840539 0.000000 0
M  V30 91 C 5.649006 3.840593 0.000000 0
M  V30 92 C 4.783117 3.340493 0.000000 0
M  V30 93 N 3.917121 3.840593 0.000000 0
M  V30 94 R 3.051116 3.340493 0.000000 3
M  V30 95 C 8.246837 3.340455 0.000000 0
M  V30 96 C 7.380841 3.840555 0.000000 0
M  V30 97 O 6.514952 3.340455 0.000000 0
M  V30 END ATOM
M  V30 BEGIN BOND
M  V30 1 2 3 4
M  V30 2 1 3 5
M  V30 3 1 5 6
M  V30 4 1 6 7
M  V30 5 1 7 8
M  V30 6 1 8 9
M  V30 7 1 9 10
M  V30 8 1 10 11
M  V30 9 2 11 12
M  V30 10 1 13 14
M  V30 11 1 14 15
M  V30 12 1 15 16
M  V30 13 1 13 17
M  V30 14 1 17 18
M  V30 15 1 18 19
M  V30 16 1 13 20
M  V30 17 1 20 21
M  V30 18 1 21 22
M  V30 19 1 22 23
M  V30 20 1 23 24
M  V30 21 1 21 25
M  V30 22 1 25 26
M  V30 23 1 26 27
M  V30 24 1 28 29
M  V30 25 1 30 31
M  V30 26 1 31 32
M  V30 27 1 32 33
M  V30 28 1 34 35
M  V30 29 1 35 36
M  V30 30 1 30 36
M  V30 31 1 29 34
M  V30 32 1 16 28
M  V30 33 1 37 38
M  V30 34 1 39 40
M  V30 35 1 40 41
M  V30 36 1 41 42
M  V30 37 1 43 44
M  V30 38 1 44 45
M  V30 39 1 39 45
M  V30 40 1 38 43
M  V30 41 1 16 37
M  V30 42 1 46 47
M  V30 43 1 48 49
M  V30 44 1 49 50
M  V30 45 1 51 52
M  V30 46 1 52 53
M  V30 47 1 48 53
M  V30 48 1 47 51
M  V30 49 1 19 46
M  V30 50 1 54 55
M  V30 51 1 56 57
M  V30 52 1 57 58
M  V30 53 1 59 60
M  V30 54 1 60 61
M  V30 55 1 56 61
M  V30 56 1 55 59
M  V30 57 1 19 54
M  V30 58 1 62 63
M  V30 59 1 64 65
M  V30 60 1 65 66
M  V30 61 1 66 67
M  V30 62 1 68 69
M  V30 63 1 69 70
M  V30 64 1 64 70
M  V30 65 1 63 68
M  V30 66 1 24 62
M  V30 67 1 71 72
M  V30 68 1 73 74
M  V30 69 1 74 75
M  V30 70 1 75 76
M  V30 71 1 77 78
M  V30 72 1 78 79
M  V30 73 1 73 79
M  V30 74 1 72 77
M  V30 75 1 24 71
M  V30 76 1 80 81
M  V30 77 1 82 83
M  V30 78 1 83 84
M  V30 79 1 84 85
M  V30 80 1 86 87
M  V30 81 1 87 88
M  V30 82 1 82 88
M  V30 83 1 81 86
M  V30 84 1 27 80
M  V30 85 1 89 90
M  V30 86 1 91 92
M  V30 87 1 92 93
M  V30 88 1 93 94
M  V30 89 1 95 96
M  V30 90 1 96 97
M  V30 91 1 91 97
M  V30 92 1 90 95
M  V30 93 1 27 89
M  V30 94 1 11 50
M  V30 95 1 1 3
M  V30 96 1 2 58
M  V30 END BOND
M  V30 BEGIN SGROUP
M  V30 1 SRU 0 ATOMS=(4 90 91 95 97) CBONDS=(2 91 92) -
M  V30 BRKXYZ=(9 8.6798 4.0906 0 8.6798 3.0904 0 0 0 0) BRKXYZ=(9 6.0820 4.090-
M  V30 6 0 6.0820 3.0904 0 0 0 0)
M  V30 2 SRU 0 ATOMS=(4 81 82 86 88) CBONDS=(2 82 83) -
M  V30 BRKXYZ=(9 10.7309 6.6393 0 9.7307 6.6393 0 0 0 0) BRKXYZ=(9 10.7309 9.2-
M  V30 372 0 9.7307 9.2372 0 0 0 0)
M  V30 3 SRU 0 ATOMS=(4 72 73 77 79) CBONDS=(2 73 74) -
M  V30 BRKXYZ=(9 8.2846 -0.6563 0 8.2846 -1.6565 0 0 0 0) BRKXYZ=(9 10.8825 -0-
M  V30 .6563 0 10.8825 -1.6565 0 0 0 0)
M  V30 4 SRU 0 ATOMS=(4 63 64 68 70) CBONDS=(2 64 65) -
M  V30 BRKXYZ=(9 3.9549 -0.6564 0 3.9549 -1.6566 0 0 0 0) BRKXYZ=(9 1.3570 -0.-
M  V30 6564 0 1.3570 -1.6566 0 0 0 0)
M  V30 5 SRU 0 ATOMS=(4 55 56 59 61) CBONDS=(2 55 56) -
M  V30 BRKXYZ=(9 3.8395 1.5906 0 3.8395 0.5904 0 0 0 0) BRKXYZ=(9 6.4373 1.590-
M  V30 7 0 6.4373 0.5905 0 0 0 0)
M  V30 6 SRU 0 ATOMS=(4 47 48 51 53) CBONDS=(2 47 48) -
M  V30 BRKXYZ=(9 -0.4904 1.5904 0 -0.4904 0.5902 0 0 0 0) BRKXYZ=(9 -3.0882 1.-
M  V30 5905 0 -3.0882 0.5903 0 0 0 0)
M  V30 7 SRU 0 ATOMS=(4 38 39 43 45) CBONDS=(2 39 40) -
M  V30 BRKXYZ=(9 2.1081 4.0886 0 2.1081 5.0888 0 0 0 0) BRKXYZ=(9 4.7059 4.088-
M  V30 6 0 4.7059 5.0888 0 0 0 0)
M  V30 8 SRU 0 ATOMS=(4 29 30 34 36) CBONDS=(2 30 31) -
M  V30 BRKXYZ=(9 0.6923 6.6393 0 -0.3079 6.6393 0 0 0 0) BRKXYZ=(9 0.6924 9.23-
M  V30 72 0 -0.3078 9.2372 0 0 0 0)
M  V30 9 SRU 0 ATOMS=(4 1 3 11 50) CBONDS=(2 94 95) -
M  V30 BRKXYZ=(9 -12.6147 0.5906 0 -12.6147 1.5904 0 0 0 0) BRKXYZ=(9 -5.6861 -
M  V30 0.5906 0 -5.6861 1.5904 0 0 0 0)
M  V30 10 SRU 0 ATOMS=(4 1 3 75 76) CBONDS=(2 70 95) -
M  V30 BRKXYZ=(9 -9.2006 -10.8588 0 -16.0288 13.0398 0 0 0 0) BRKXYZ=(9 16.894-
M  V30 4 -13.1057 0 10.0662 10.7929 0 0 0 0)
M  V30 11 SRU 0 ATOMS=(2 32 33) CBONDS=(1 27) -
M  V30 BRKXYZ=(9 0.6253 12.0851 0 -0.2407 11.5850 0 0 0 0)
M  V30 12 SRU 0 ATOMS=(2 41 42) CBONDS=(1 36) -
M  V30 BRKXYZ=(9 7.5538 4.1556 0 7.0537 5.0216 0 0 0 0)
M  V30 13 SRU 0 ATOMS=(2 11 50) CBONDS=(1 94) -
M  V30 BRKXYZ=(9 -5.9362 1.5235 0 -5.4361 0.6575 0 0 0 0)
M  V30 14 SRU 0 ATOMS=(2 2 58) CBONDS=(1 96) -
M  V30 BRKXYZ=(9 8.7851 0.6576 0 9.2852 1.5236 0 0 0 0)
M  V30 15 SRU 0 ATOMS=(2 66 67) CBONDS=(1 61) -
M  V30 BRKXYZ=(9 -1.4909 -0.7235 0 -0.9908 -1.5895 0 0 0 0)
M  V30 16 SRU 0 ATOMS=(2 75 76) CBONDS=(1 70) -
M  V30 BRKXYZ=(9 13.2303 -1.5894 0 13.7304 -0.7234 0 0 0 0)
M  V30 17 SRU 0 ATOMS=(2 84 85) CBONDS=(1 79) -
M  V30 BRKXYZ=(9 10.6638 12.0851 0 9.7978 11.5850 0 0 0 0)
M  V30 18 SRU 0 ATOMS=(2 93 94) CBONDS=(1 88) -
M  V30 BRKXYZ=(9 3.2341 4.0235 0 3.7342 3.1575 0 0 0 0)
M  V30 END SGROUP
M  V30 END CTAB
M  END
>  <BIGSMILES_BRACKET_RECORDS_JSON>
{
  "records": [
    {
      "id": 0,
      "bracket_kind": "backbone",
      "pairing_id": "F17/fragments[0]",
      "group_id": ">1:4",
      "ru_midpoint": [
        7.380876324859382,
        3.507155387132393
      ],
      "bond_midpoint": [
        8.679825052722101,
        3.5904974125722275
      ],
      "orientation_vector": [
        0.0,
        1.0
      ],
      "half_bracket_size": 0.5001001599500253,
      "bond": [
        89,
        94
      ],
      "fragment": "F17",
      "backbone": true,
      "suspended_anchor_atom": null,
      "suspended_reason": null,
      "source_label": "F17/fragments[0]",
      "marker_id": "0",
      "side": "left",
      "connection_group": ">1",
      "marker_type_index": 4
    },
    {
      "id": 1,
      "bracket_kind": "backbone",
      "pairing_id": "F17/fragments[0]",
      "group_id": "<1:3",
      "ru_midpoint": [
        7.380876324859382,
        3.507155387132393
      ],
      "bond_midpoint": [
        6.081978800824594,
        3.590524219678075
      ],
      "orientation_vector": [
        0.0,
        1.0
      ],
      "half_bracket_size": 0.5001001599500253,
      "bond": [
        90,
        96
      ],
      "fragment": "F17",
      "backbone": true,
      "suspended_anchor_atom": null,
      "suspended_reason": null,
      "source_label": "F17/fragments[0]",
      "marker_id": "4",
      "side": "right",
      "connection_group": "<1",
      "marker_type_index": 3
    },
    {
      "id": 2,
      "bracket_kind": "backbone",
      "pairing_id": "F16/fragments[0]",
      "group_id": ">1:4",
      "ru_midpoint": [
        10.147410238513197,
        7.938255189276845
      ],
      "bond_midpoint": [
        10.23075226395303,
        6.639306461414125
      ],
      "orientation_vector": [
        1.0,
        0.0
      ],
      "half_bracket_size": 0.5001001599500253,
      "bond": [
        80,
        85
      ],
      "fragment": "F16",
      "backbone": true,
      "suspended_anchor_atom": null,
      "suspended_reason": null,
      "source_label": "F16/fragments[0]",
      "marker_id": "0",
      "side": "left",
      "connection_group": ">1",
      "marker_type_index": 4
    },
    {
      "id": 3,
      "bracket_kind": "backbone",
      "pairing_id": "F16/fragments[0]",
      "group_id": "<1:3",
      "ru_midpoint": [
        10.147410238513197,
        7.938255189276845
      ],
      "bond_midpoint": [
        10.230779071058878,
        9.237152713311634
      ],
      "orientation_vector": [
        1.0,
        0.0
      ],
      "half_bracket_size": 0.5001001599500253,
      "bond": [
        81,
        87
      ],
      "fragment": "F16",
      "backbone": true,
      "suspended_anchor_atom": null,
      "suspended_reason": null,
      "source_label": "F16/fragments[0]",
      "marker_id": "4",
      "side": "right",
      "connection_group": "<1",
      "marker_type_index": 3
    },
    {
      "id": 4,
      "bracket_kind": "backbone",
      "pairing_id": "F15/fragments[0]",
      "group_id": ">1:4",
      "ru_midpoint": [
        9.58356158661509,
        -1.2397916412408385
      ],
      "bond_midpoint": [
        8.28461285875237,
        -1.1564496158010047
      ],
      "orientation_vector": [
        0.0,
        1.0
      ],
      "half_bracket_size": 0.5001001599500253,
      "bond": [
        71,
        76
      ],
      "fragment": "F15",
      "backbone": true,
      "suspended_anchor_atom": null,
      "suspended_reason": null,
      "source_label": "F15/fragments[0]",
      "marker_id": "0",
      "side": "left",
      "connection_group": ">1",
      "marker_type_index": 4
    },
    {
      "id": 5,
      "bracket_kind": "backbone",
      "pairing_id": "F15/fragments[0]",
      "group_id": "<1:3",
      "ru_midpoint": [
        9.58356158661509,
        -1.2397916412408385
      ],
      "bond_midpoint": [
        10.88245911064988,
        -1.1564228086951571
      ],
      "orientation_vector": [
        0.0,
        1.0
      ],
      "half_bracket_size": 0.5001001599500253,
      "bond": [
        72,
        78
      ],
      "fragment": "F15",
      "backbone": true,
      "suspended_anchor_atom": null,
      "suspended_reason": null,
      "source_label": "F15/fragments[0]",
      "marker_id": "4",
      "side": "right",
      "connection_group": "<1",
      "marker_type_index": 3
    },
    {
      "id": 6,
      "bracket_kind": "backbone",
      "pairing_id": "F14/fragments[0]",
      "group_id": ">1:4",
      "ru_midpoint": [
        2.655922534818034,
        -1.2398556411128387
      ],
      "bond_midpoint": [
        3.9548712626807543,
        -1.156513615673004
      ],
      "orientation_vector": [
        0.0,
        1.0
      ],
      "half_bracket_size": 0.5001001599500253,
      "bond": [
        62,
        67
      ],
      "fragment": "F14",
      "backbone": true,
      "suspended_anchor_atom": null,
      "suspended_reason": null,
      "source_label": "F14/fragments[0]",
      "marker_id": "0",
      "side": "left",
      "connection_group": ">1",
      "marker_type_index": 4
    },
    {
      "id": 7,
      "bracket_kind": "backbone",
      "pairing_id": "F14/fragments[0]",
      "group_id": "<1:3",
      "ru_midpoint": [
        2.655922534818034,
        -1.2398556411128387
      ],
      "bond_midpoint": [
        1.3570250107832447,
        -1.1564868085671565
      ],
      "orientation_vector": [
        0.0,
        1.0
      ],
      "half_bracket_size": 0.5001001599500253,
      "bond": [
        63,
        69
      ],
      "fragment": "F14",
      "backbone": true,
      "suspended_anchor_atom": null,
      "suspended_reason": null,
      "source_label": "F14/fragments[0]",
      "marker_id": "4",
      "side": "right",
      "connection_group": "<1",
      "marker_type_index": 3
    },
    {
      "id": 8,
      "bracket_kind": "backbone",
      "pairing_id": "F13/fragments[0]",
      "group_id": ">1:4",
      "ru_midpoint": [
        5.138418671854143,
        1.0071884726434925
      ],
      "bond_midpoint": [
        3.839469943991423,
        1.0905304980833272
      ],
      "orientation_vector": [
        0.0,
        1.0
      ],
      "half_bracket_size": 0.5001001599500253,
      "bond": [
        54,
        58
      ],
      "fragment": "F13",
      "backbone": true,
      "suspended_anchor_atom": null,
      "suspended_reason": null,
      "source_label": "F13/fragments[0]",
      "marker_id": "0",
      "side": "left",
      "connection_group": ">1",
      "marker_type_index": 4
    },
    {
      "id": 9,
      "bracket_kind": "backbone",
      "pairing_id": "F13/fragments[0]",
      "group_id": "<1:3",
      "ru_midpoint": [
        5.138418671854143,
        1.0071884726434925
      ],
      "bond_midpoint": [
        6.437316195888931,
        1.0905573051891748
      ],
      "orientation_vector": [
        0.0,
        1.0
      ],
      "half_bracket_size": 0.5001001599500253,
      "bond": [
        55,
        60
      ],
      "fragment": "F13",
      "backbone": true,
      "suspended_anchor_atom": null,
      "suspended_reason": null,
      "source_label": "F13/fragments[0]",
      "marker_id": "4",
      "side": "right",
      "connection_group": "<1",
      "marker_type_index": 3
    },
    {
      "id": 10,
      "bracket_kind": "backbone",
      "pairing_id": "F12/fragments[0]",
      "group_id": ">1:4",
      "ru_midpoint": [
        -1.7893175610245293,
        1.006991656169526
      ],
      "bond_midpoint": [
        -0.4903688331618099,
        1.0903336816093607
      ],
      "orientation_vector": [
        0.0,
        1.0
      ],
      "half_bracket_size": 0.5001001599500253,
      "bond": [
        46,
        50
      ],
      "fragment": "F12",
      "backbone": true,
      "suspended_anchor_atom": null,
      "suspended_reason": null,
      "source_label": "F12/fragments[0]",
      "marker_id": "0",
      "side": "left",
      "connection_group": ">1",
      "marker_type_index": 4
    },
    {
      "id": 11,
      "bracket_kind": "backbone",
      "pairing_id": "F12/fragments[0]",
      "group_id": "<1:3",
      "ru_midpoint": [
        -1.7893175610245293,
        1.006991656169526
      ],
      "bond_midpoint": [
        -3.0882150850593177,
        1.0903604887152083
      ],
      "orientation_vector": [
        0.0,
        1.0
      ],
      "half_bracket_size": 0.5001001599500253,
      "bond": [
        47,
        52
      ],
      "fragment": "F12",
      "backbone": true,
      "suspended_anchor_atom": null,
      "suspended_reason": null,
      "source_label": "F12/fragments[0]",
      "marker_id": "4",
      "side": "right",
      "connection_group": "<1",
      "marker_type_index": 3
    },
    {
      "id": 12,
      "bracket_kind": "backbone",
      "pairing_id": "F11/fragments[0]",
      "group_id": ">1:4",
      "ru_midpoint": [
        3.4070040728667585,
        4.6720294132246565
      ],
      "bond_midpoint": [
        2.10805534500404,
        4.588687387784821
      ],
      "orientation_vector": [
        0.0,
        -1.0
      ],
      "half_bracket_size": 0.5001001599500253,
      "bond": [
        37,
        42
      ],
      "fragment": "F11",
      "backbone": true,
      "suspended_anchor_atom": null,
      "suspended_reason": null,
      "source_label": "F11/fragments[0]",
      "marker_id": "0",
      "side": "left",
      "connection_group": ">1",
      "marker_type_index": 4
    },
    {
      "id": 13,
      "bracket_kind": "backbone",
      "pairing_id": "F11/fragments[0]",
      "group_id": "<1:3",
      "ru_midpoint": [
        3.4070040728667585,
        4.6720294132246565
      ],
      "bond_midpoint": [
        4.705901596901548,
        4.588660580678974
      ],
      "orientation_vector": [
        0.0,
        -1.0
      ],
      "half_bracket_size": 0.5001001599500253,
      "bond": [
        38,
        44
      ],
      "fragment": "F11",
      "backbone": true,
      "suspended_anchor_atom": null,
      "suspended_reason": null,
      "source_label": "F11/fragments[0]",
      "marker_id": "4",
      "side": "right",
      "connection_group": "<1",
      "marker_type_index": 3
    },
    {
      "id": 14,
      "bracket_kind": "backbone",
      "pairing_id": "F10/fragments[0]",
      "group_id": ">1:4",
      "ru_midpoint": [
        0.10890227072030711,
        7.938255189276845
      ],
      "bond_midpoint": [
        0.19224429616014227,
        6.639306461414125
      ],
      "orientation_vector": [
        1.0,
        0.0
      ],
      "half_bracket_size": 0.5001001599500253,
      "bond": [
        28,
        33
      ],
      "fragment": "F10",
      "backbone": true,
      "suspended_anchor_atom": null,
      "suspended_reason": null,
      "source_label": "F10/fragments[0]",
      "marker_id": "0",
      "side": "left",
      "connection_group": ">1",
      "marker_type_index": 4
    },
    {
      "id": 15,
      "bracket_kind": "backbone",
      "pairing_id": "F10/fragments[0]",
      "group_id": "<1:3",
      "ru_midpoint": [
        0.10890227072030711,
        7.938255189276845
      ],
      "bond_midpoint": [
        0.1922711032659894,
        9.237152713311634
      ],
      "orientation_vector": [
        1.0,
        0.0
      ],
      "half_bracket_size": 0.5001001599500253,
      "bond": [
        29,
        35
      ],
      "fragment": "F10",
      "backbone": true,
      "suspended_anchor_atom": null,
      "suspended_reason": null,
      "source_label": "F10/fragments[0]",
      "marker_id": "4",
      "side": "right",
      "connection_group": "<1",
      "marker_type_index": 3
    },
    {
      "id": 16,
      "bracket_kind": "pendant",
      "pairing_id": "F1-1/substituted",
      "group_id": "<1:3",
      "ru_midpoint": [
        3.5863892156927486,
        4.716962519676899
      ],
      "bond_midpoint": [
        0.19228990915333455,
        11.83501282061642
      ],
      "orientation_vector": [
        0.8659768099692361,
        0.5000841575130186
      ],
      "half_bracket_size": 0.5000159997440085,
      "bond": [
        32,
        31
      ],
      "fragment": "F1-1",
      "backbone": false,
      "suspended_anchor_atom": null,
      "suspended_reason": null,
      "source_label": "F1-1/substituted",
      "marker_id": "3",
      "side": "left",
      "connection_group": "<1",
      "marker_type_index": 3
    },
    {
      "id": 17,
      "bracket_kind": "pendant",
      "pairing_id": "F1-1/substituted",
      "group_id": "<1:3",
      "ru_midpoint": [
        3.8567506086607475,
        4.690642942259094
      ],
      "bond_midpoint": [
        7.303761704206334,
        4.58864177479163
      ],
      "orientation_vector": [
        0.5000841575130203,
        -0.8659768099692352
      ],
      "half_bracket_size": 0.5000159997440085,
      "bond": [
        41,
        40
      ],
      "fragment": "F1-1",
      "backbone": false,
      "suspended_anchor_atom": null,
      "suspended_reason": null,
      "source_label": "F1-1/substituted",
      "marker_id": "3@34-35",
      "side": "left",
      "connection_group": "<1",
      "marker_type_index": 3
    },
    {
      "id": 18,
      "bracket_kind": "pendant",
      "pairing_id": "F1-1/substituted",
      "group_id": "<1:3",
      "ru_midpoint": [
        2.708414742803126,
        4.07782720522641
      ],
      "bond_midpoint": [
        -5.68611420897379,
        1.0904788746524026
      ],
      "orientation_vector": [
        -0.500084157513019,
        0.8659768099692358
      ],
      "half_bracket_size": 0.5000159997440085,
      "bond": [
        10,
        49
      ],
      "fragment": "F1-1",
      "backbone": false,
      "suspended_anchor_atom": null,
      "suspended_reason": null,
      "source_label": "F1-1/substituted",
      "marker_id": "3@42-43",
      "side": "left",
      "connection_group": "<1",
      "marker_type_index": 3
    },
    {
      "id": 19,
      "bracket_kind": "pendant",
      "pairing_id": "F1-1/substituted",
      "group_id": "<1:3",
      "ru_midpoint": [
        3.2796730500898166,
        3.6433137649994483
      ],
      "bond_midpoint": [
        9.035172065319815,
        1.0905761110765195
      ],
      "orientation_vector": [
        -0.5000841575130203,
        -0.8659768099692352
      ],
      "half_bracket_size": 0.5000159997440085,
      "bond": [
        1,
        57
      ],
      "fragment": "F1-1",
      "backbone": false,
      "suspended_anchor_atom": null,
      "suspended_reason": null,
      "source_label": "F1-1/substituted",
      "marker_id": "3@50-51",
      "side": "left",
      "connection_group": "<1",
      "marker_type_index": 3
    },
    {
      "id": 20,
      "bracket_kind": "pendant",
      "pairing_id": "F1-1/substituted",
      "group_id": "<1:3",
      "ru_midpoint": [
        3.0607326618358472,
        3.319168672130911
      ],
      "bond_midpoint": [
        -1.2408350965215398,
        -1.1564680026798113
      ],
      "orientation_vector": [
        -0.500084157513019,
        0.8659768099692358
      ],
      "half_bracket_size": 0.5000159997440085,
      "bond": [
        66,
        65
      ],
      "fragment": "F1-1",
      "backbone": false,
      "suspended_anchor_atom": null,
      "suspended_reason": null,
      "source_label": "F1-1/substituted",
      "marker_id": "3@58-59",
      "side": "left",
      "connection_group": "<1",
      "marker_type_index": 3
    },
    {
      "id": 21,
      "bracket_kind": "pendant",
      "pairing_id": "F1-1/substituted",
      "group_id": "<1:3",
      "ru_midpoint": [
        3.964420082492098,
        3.068077572007057
      ],
      "bond_midpoint": [
        13.480319217954666,
        -1.156404002807812
      ],
      "orientation_vector": [
        -0.5000841575130203,
        -0.8659768099692352
      ],
      "half_bracket_size": 0.5000159997440085,
      "bond": [
        75,
        74
      ],
      "fragment": "F1-1",
      "backbone": false,
      "suspended_anchor_atom": null,
      "suspended_reason": null,
      "source_label": "F1-1/substituted",
      "marker_id": "3@66-67",
      "side": "left",
      "connection_group": "<1",
      "marker_type_index": 3
    },
    {
      "id": 22,
      "bracket_kind": "pendant",
      "pairing_id": "F1-1/substituted",
      "group_id": "<1:3",
      "ru_midpoint": [
        4.5788889713701275,
        3.6927935825324134
      ],
      "bond_midpoint": [
        10.230797876946223,
        11.83501282061642
      ],
      "orientation_vector": [
        0.8659768099692358,
        0.500084157513019
      ],
      "half_bracket_size": 0.5000159997440085,
      "bond": [
        84,
        83
      ],
      "fragment": "F1-1",
      "backbone": false,
      "suspended_anchor_atom": null,
      "suspended_reason": null,
      "source_label": "F1-1/substituted",
      "marker_id": "3@74-75",
      "side": "left",
      "connection_group": "<1",
      "marker_type_index": 3
    },
    {
      "id": 23,
      "bracket_kind": "pendant",
      "pairing_id": "F1-1/substituted",
      "group_id": "<1:3",
      "ru_midpoint": [
        4.698853077578041,
        3.683388583509198
      ],
      "bond_midpoint": [
        3.4841186935198074,
        3.5905430255654203
      ],
      "orientation_vector": [
        -0.500084157513019,
        0.8659768099692358
      ],
      "half_bracket_size": 0.5000159997440085,
      "bond": [
        93,
        92
      ],
      "fragment": "F1-1",
      "backbone": false,
      "suspended_anchor_atom": null,
      "suspended_reason": null,
      "source_label": "F1-1/substituted",
      "marker_id": "3@82-83",
      "side": "left",
      "connection_group": "<1",
      "marker_type_index": 3
    },
    {
      "id": 24,
      "bracket_kind": "backbone",
      "pairing_id": "F1/fragments[0]",
      "group_id": ">1:4",
      "ru_midpoint": [
        -9.150383481151596,
        1.0904923430738656
      ],
      "bond_midpoint": [
        -12.614686983599249,
        1.0904788746524026
      ],
      "orientation_vector": [
        0.0,
        -1.0
      ],
      "half_bracket_size": 0.4999009998503273,
      "bond": [
        0,
        2
      ],
      "fragment": "F1",
      "backbone": true,
      "suspended_anchor_atom": null,
      "suspended_reason": null,
      "source_label": "F1/fragments[0]",
      "marker_id": "0",
      "side": "left",
      "connection_group": ">1",
      "marker_type_index": 4
    },
    {
      "id": 25,
      "bracket_kind": "backbone",
      "pairing_id": "F1/fragments[0]",
      "group_id": ">1:4",
      "ru_midpoint": [
        -9.150383481151596,
        1.0904923430738656
      ],
      "bond_midpoint": [
        -5.68611420897379,
        1.0904788746524026
      ],
      "orientation_vector": [
        0.0,
        -1.0
      ],
      "half_bracket_size": 0.4999009998503273,
      "bond": [
        10,
        49
      ],
      "fragment": "F1",
      "backbone": true,
      "suspended_anchor_atom": null,
      "suspended_reason": null,
      "source_label": "F1/fragments[0]",
      "marker_id": "11",
      "side": "right",
      "connection_group": ">1",
      "marker_type_index": 4
    },
    {
      "id": 26,
      "bracket_kind": "backbone",
      "pairing_id": "F1/connected",
      "group_id": "$overall",
      "ru_midpoint": [
        3.4185116680075285,
        3.1495160687018653
      ],
      "bond_midpoint": [
        -12.614686983599249,
        1.0904788746524026
      ],
      "orientation_vector": [
        0.27472112789737807,
        -0.9615239476408232
      ],
      "half_bracket_size": 12.4274887062355,
      "bond": [
        0,
        2
      ],
      "fragment": "F1",
      "backbone": true,
      "suspended_anchor_atom": null,
      "suspended_reason": null,
      "source_label": "F1/connected",
      "marker_id": "connected-overall-left",
      "side": "left",
      "connection_group": "$overall",
      "marker_type_index": null
    },
    {
      "id": 27,
      "bracket_kind": "backbone",
      "pairing_id": "F1/connected",
      "group_id": "$overall",
      "ru_midpoint": [
        3.4185116680075285,
        3.1495160687018653
      ],
      "bond_midpoint": [
        13.480319217954666,
        -1.156404002807812
      ],
      "orientation_vector": [
        0.27472112789737807,
        -0.9615239476408232
      ],
      "half_bracket_size": 12.4274887062355,
      "bond": [
        75,
        74
      ],
      "fragment": "F1",
      "backbone": true,
      "suspended_anchor_atom": null,
      "suspended_reason": null,
      "source_label": "F1/connected",
      "marker_id": "connected-overall-right",
      "side": "right",
      "connection_group": "$overall",
      "marker_type_index": null
    }
  ]
}
