
     RDKit          2D

  0  0  0  0  0  0  0  0  0  0999 V3000
M  V30 BEGIN CTAB
M  V30 COUNTS 47 47 4 0 0
M  V30 BEGIN ATOM
M  V30 1 H -11.959747 -0.538007 0.000000 0
M  V30 2 H 11.959365 -0.038107 0.000000 0
M  V30 3 C -11.093751 -1.037907 0.000000 0
M  V30 4 C -10.227755 -0.538007 0.000000 0
M  V30 5 O -10.227757 0.461993 0.000000 0
M  V30 6 O -9.361750 -1.037907 0.000000 0
M  V30 7 C -8.495754 -0.538007 0.000000 0
M  V30 8 C -7.495754 -0.538007 0.000000 0
M  V30 9 C -6.995749 -1.404041 0.000000 0
M  V30 10 C -5.995739 -1.404041 0.000000 0
M  V30 11 C -5.495734 -0.538007 0.000000 0
M  V30 12 C -4.495734 -0.538007 0.000000 0
M  V30 13 O -3.629738 -0.038107 0.000000 0
M  V30 14 C -2.763734 -0.538007 0.000000 0
M  V30 15 O -2.763731 -1.538008 0.000000 0
M  V30 16 C -1.897737 -0.038107 0.000000 0
M  V30 17 C -5.995739 0.328027 0.000000 0
M  V30 18 N -5.495773 1.193993 0.000000 0 CHG=1
M  V30 19 O -4.495741 1.193769 0.000000 0 CHG=-1
M  V30 20 O -5.995671 2.060078 0.000000 0
M  V30 21 C -6.995749 0.328027 0.000000 0
M  V30 22 C 5.031186 0.961865 0.000000 0
M  V30 23 C 4.165040 0.462025 0.000000 0
M  V30 24 C 4.165040 -0.538007 0.000000 0
M  V30 25 C 5.031160 -0.038107 0.000000 0
M  V30 26 O 5.897272 -0.538007 0.000000 0
M  V30 27 C 6.763276 -0.038107 0.000000 0
M  V30 28 O 6.763278 0.961893 0.000000 0
M  V30 29 C 7.629272 -0.538007 0.000000 0
M  V30 30 C 8.495277 -0.038107 0.000000 0
M  V30 31 S 9.361273 -0.538007 0.000000 0
M  V30 32 C 3.298929 -0.038107 0.000000 0
M  V30 33 O 2.432809 -0.538007 0.000000 0
M  V30 34 C 1.566697 -0.038107 0.000000 0
M  V30 35 O 1.566699 0.961893 0.000000 0
M  V30 36 C 0.700577 -0.538007 0.000000 0
M  V30 37 C -0.165534 -0.038107 0.000000 0
M  V30 38 S -1.031654 -0.538007 0.000000 0
M  V30 39 C 4.165040 -1.537932 0.000000 0
M  V30 40 O 3.298974 -2.037863 0.000000 0
M  V30 41 C 3.298801 -3.037887 0.000000 0
M  V30 42 O 4.164694 -3.537981 0.000000 0
M  V30 43 C 2.432735 -3.537818 0.000000 0
M  V30 44 C 2.432562 -4.537843 0.000000 0
M  V30 45 S 1.566496 -5.037773 0.000000 0
M  V30 46 C 11.093360 -0.538207 0.000000 0
M  V30 47 C 10.227356 -0.038107 0.000000 0
M  V30 END ATOM
M  V30 BEGIN BOND
M  V30 1 1 3 4
M  V30 2 2 4 5
M  V30 3 1 4 6
M  V30 4 1 6 7
M  V30 5 1 7 8
M  V30 6 2 8 9
M  V30 7 1 9 10
M  V30 8 2 10 11
M  V30 9 1 11 12
M  V30 10 1 12 13
M  V30 11 1 13 14
M  V30 12 2 14 15
M  V30 13 1 14 16
M  V30 14 1 11 17
M  V30 15 1 17 18
M  V30 16 1 18 19
M  V30 17 2 18 20
M  V30 18 2 17 21
M  V30 19 1 21 8
M  V30 20 1 22 23
M  V30 21 1 23 24
M  V30 22 1 24 25
M  V30 23 1 25 26
M  V30 24 1 26 27
M  V30 25 2 27 28
M  V30 26 1 27 29
M  V30 27 1 29 30
M  V30 28 1 30 31
M  V30 29 1 24 32
M  V30 30 1 32 33
M  V30 31 1 33 34
M  V30 32 2 34 35
M  V30 33 1 34 36
M  V30 34 1 36 37
M  V30 35 1 37 38
M  V30 36 1 24 39
M  V30 37 1 39 40
M  V30 38 1 40 41
M  V30 39 2 41 42
M  V30 40 1 41 43
M  V30 41 1 43 44
M  V30 42 1 44 45
M  V30 43 1 16 38
M  V30 44 1 46 47
M  V30 45 1 31 47
M  V30 46 1 1 3
M  V30 47 1 2 46
M  V30 END BOND
M  V30 BEGIN SGROUP
M  V30 1 SRU 0 ATOMS=(4 1 3 16 38) CBONDS=(2 43 46) -
M  V30 BRKXYZ=(9 -11.5267 -2.5200 0 -11.5267 0.9441 0 0 0 0) BRKXYZ=(9 -1.4647-
M  V30  -2.0201 0 -1.4647 1.4440 0 0 0 0)
M  V30 2 SRU 0 ATOMS=(4 16 31 38 47) CBONDS=(2 43 45) -
M  V30 BRKXYZ=(9 9.7943 1.4440 0 9.7943 -2.0201 0 0 0 0) BRKXYZ=(9 -1.4647 1.4-
M  V30 440 0 -1.4647 -2.0201 0 0 0 0)
M  V30 3 SRU 0 ATOMS=(4 2 31 46 47) CBONDS=(2 45 47) -
M  V30 BRKXYZ=(9 11.5264 -2.0202 0 11.5264 1.4439 0 0 0 0) BRKXYZ=(9 9.7943 -2-
M  V30 .0201 0 9.7943 1.4440 0 0 0 0)
M  V30 4 SRU 0 ATOMS=(4 1 2 3 46) CBONDS=(2 46 47) -
M  V30 BRKXYZ=(9 -11.5267 -7.8858 0 -11.5267 6.3099 0 0 0 0) BRKXYZ=(9 11.5264-
M  V30  -7.3860 0 11.5264 6.8097 0 0 0 0)
M  V30 END SGROUP
M  V30 END CTAB
M  END
>  <BIGSMILES_BRACKET_RECORDS_JSON>
{
  "records": [
    {
      "id": 0,
      "bracket_kind": "backbone",
      "pairing_id": "F1/fragments[0]",
      "group_id": "<1:7",
      "ru_midpoint": [
        -6.495710552566655,
        -0.538024222833443
      ],
      "bond_midpoint": [
        -11.526749076518094,
        -0.787957269501675
      ],
      "orientation_vector": [
        0.0,
        -1.0
      ],
      "half_bracket_size": 1.732068239080402,
      "bond": [
        0,
        2
      ],
      "fragment": "F1",
      "backbone": true,
      "suspended_anchor_atom": null,
      "suspended_reason": null,
      "source_label": "F1/fragments[0]",
      "marker_id": "0",
      "side": "left",
      "connection_group": "<1",
      "marker_type_index": 7
    },
    {
      "id": 1,
      "bracket_kind": "backbone",
      "pairing_id": "F1/fragments[0]",
      "group_id": "<1:7",
      "ru_midpoint": [
        -6.495710552566655,
        -0.538024222833443
      ],
      "bond_midpoint": [
        -1.4646957805791687,
        -0.28805710948631313
      ],
      "orientation_vector": [
        0.0,
        -1.0
      ],
      "half_bracket_size": 1.732068239080402,
      "bond": [
        15,
        37
      ],
      "fragment": "F1",
      "backbone": true,
      "suspended_anchor_atom": null,
      "suspended_reason": null,
      "source_label": "F1/fragments[0]",
      "marker_id": "15",
      "side": "right",
      "connection_group": "<1",
      "marker_type_index": 7
    },
    {
      "id": 2,
      "bracket_kind": "backbone",
      "pairing_id": "F1/fragments[1]",
      "group_id": ">2:8",
      "ru_midpoint": [
        4.164926992460284,
        -0.2713937708191342
      ],
      "bond_midpoint": [
        9.79431437873273,
        -0.28805710948631286
      ],
      "orientation_vector": [
        0.0,
        1.0
      ],
      "half_bracket_size": 1.732068239080402,
      "bond": [
        30,
        46
      ],
      "fragment": "F1",
      "backbone": true,
      "suspended_anchor_atom": null,
      "suspended_reason": null,
      "source_label": "F1/fragments[1]",
      "marker_id": "10",
      "side": "left",
      "connection_group": ">2",
      "marker_type_index": 8
    },
    {
      "id": 3,
      "bracket_kind": "backbone",
      "pairing_id": "F1/fragments[1]",
      "group_id": ">2:8",
      "ru_midpoint": [
        4.164926992460284,
        -0.2713937708191342
      ],
      "bond_midpoint": [
        -1.4646957805791687,
        -0.28805710948631313
      ],
      "orientation_vector": [
        0.0,
        1.0
      ],
      "half_bracket_size": 1.732068239080402,
      "bond": [
        15,
        37
      ],
      "fragment": "F1",
      "backbone": true,
      "suspended_anchor_atom": null,
      "suspended_reason": null,
      "source_label": "F1/fragments[1]",
      "marker_id": "18",
      "side": "right",
      "connection_group": ">2",
      "marker_type_index": 8
    },
    {
      "id": 4,
      "bracket_kind": "backbone",
      "pairing_id": "F1/fragments[2]",
      "group_id": ">1:9",
      "ru_midpoint": [
        10.660373073711593,
        -0.2881509434467524
      ],
      "bond_midpoint": [
        11.5263626792852,
        -0.28815710945364426
      ],
      "orientation_vector": [
        0.0,
        -1.0
      ],
      "half_bracket_size": 1.732068239080402,
      "bond": [
        1,
        45
      ],
      "fragment": "F1",
      "backbone": true,
      "suspended_anchor_atom": null,
      "suspended_reason": null,
      "source_label": "F1/fragments[2]",
      "marker_id": "0",
      "side": "left",
      "connection_group": ">1",
      "marker_type_index": 9
    },
    {
      "id": 5,
      "bracket_kind": "backbone",
      "pairing_id": "F1/fragments[2]",
      "group_id": "<2:10",
      "ru_midpoint": [
        10.660373073711593,
        -0.2881509434467524
      ],
      "bond_midpoint": [
        9.79431437873273,
        -0.28805710948631286
      ],
      "orientation_vector": [
        0.0,
        -1.0
      ],
      "half_bracket_size": 1.732068239080402,
      "bond": [
        30,
        46
      ],
      "fragment": "F1",
      "backbone": true,
      "suspended_anchor_atom": null,
      "suspended_reason": null,
      "source_label": "F1/fragments[2]",
      "marker_id": "3",
      "side": "right",
      "connection_group": "<2",
      "marker_type_index": 10
    },
    {
      "id": 6,
      "bracket_kind": "backbone",
      "pairing_id": "F1/connected",
      "group_id": "$overall",
      "ru_midpoint": [
        -0.08561421628275845,
        -0.4598479519607637
      ],
      "bond_midpoint": [
        -11.526749076518094,
        -0.787957269501675
      ],
      "orientation_vector": [
        0.0,
        -1.0
      ],
      "half_bracket_size": 7.097851373908156,
      "bond": [
        0,
        2
      ],
      "fragment": "F1",
      "backbone": true,
      "suspended_anchor_atom": null,
      "suspended_reason": null,
      "source_label": "F1/connected",
      "marker_id": "connected-overall-left",
      "side": "left",
      "connection_group": "$overall",
      "marker_type_index": null
    },
    {
      "id": 7,
      "bracket_kind": "backbone",
      "pairing_id": "F1/connected",
      "group_id": "$overall",
      "ru_midpoint": [
        -0.08561421628275845,
        -0.4598479519607637
      ],
      "bond_midpoint": [
        11.5263626792852,
        -0.28815710945364426
      ],
      "orientation_vector": [
        0.0,
        -1.0
      ],
      "half_bracket_size": 7.097851373908156,
      "bond": [
        1,
        45
      ],
      "fragment": "F1",
      "backbone": true,
      "suspended_anchor_atom": null,
      "suspended_reason": null,
      "source_label": "F1/connected",
      "marker_id": "connected-overall-right",
      "side": "right",
      "connection_group": "$overall",
      "marker_type_index": null
    }
  ]
}
