
     RDKit          2D

  0  0  0  0  0  0  0  0  0  0999 V3000
M  V30 BEGIN CTAB
M  V30 COUNTS 53 53 6 0 0
M  V30 BEGIN ATOM
M  V30 1 H -11.959278 -0.381619 0.000000 0
M  V30 2 H 11.958896 -0.881615 0.000000 0
M  V30 3 C -11.093282 0.118281 0.000000 0
M  V30 4 C -10.227285 -0.381619 0.000000 0
M  V30 5 O -10.227288 -1.381619 0.000000 0
M  V30 6 O -9.361281 0.118281 0.000000 0
M  V30 7 C -8.495285 -0.381619 0.000000 0
M  V30 8 C -7.495285 -0.381619 0.000000 0
M  V30 9 C -6.995280 0.484415 0.000000 0
M  V30 10 C -5.995270 0.484415 0.000000 0
M  V30 11 C -5.495265 -0.381619 0.000000 0
M  V30 12 C -4.495265 -0.381619 0.000000 0
M  V30 13 O -3.629269 -0.881519 0.000000 0
M  V30 14 C -2.763264 -0.381619 0.000000 0
M  V30 15 O -2.763262 0.618381 0.000000 0
M  V30 16 C -1.897268 -0.881519 0.000000 0
M  V30 17 C -5.995270 -1.247653 0.000000 0
M  V30 18 N -5.495304 -2.113619 0.000000 0 CHG=1
M  V30 19 O -4.495272 -2.113395 0.000000 0 CHG=-1
M  V30 20 O -5.995202 -2.979704 0.000000 0
M  V30 21 C -6.995280 -1.247653 0.000000 0
M  V30 22 R 6.762848 -4.881569 0.000000 8
M  V30 23 S 5.896825 -4.381545 0.000000 0
M  V30 24 C 5.896825 -3.381553 0.000000 0
M  V30 25 C 5.030802 -2.881529 0.000000 0
M  V30 26 C 5.030802 -1.881536 0.000000 0
M  V30 27 O 5.896825 -1.381567 0.000000 0
M  V30 28 O 4.164953 -1.381612 0.000000 0
M  V30 29 C 4.164953 -0.381619 0.000000 0
M  V30 30 C 5.030760 -0.881615 0.000000 0
M  V30 31 O 5.896767 -0.381619 0.000000 0
M  V30 32 C 6.762806 -0.881615 0.000000 0
M  V30 33 O 6.762814 -1.881608 0.000000 0
M  V30 34 C 7.628813 -0.381619 0.000000 0
M  V30 35 C 8.494852 -0.881615 0.000000 0
M  V30 36 S 9.360859 -0.381619 0.000000 0
M  V30 37 C 4.164953 0.618374 0.000000 0
M  V30 38 O 5.031075 1.118517 0.000000 0
M  V30 39 C 5.031075 2.118510 0.000000 0
M  V30 40 O 4.165225 2.618434 0.000000 0
M  V30 41 C 5.897098 2.618479 0.000000 0
M  V30 42 C 5.897098 3.618472 0.000000 0
M  V30 43 S 6.763121 4.118441 0.000000 0
M  V30 44 R 6.763121 5.118434 0.000000 8
M  V30 45 C 3.298914 -0.881615 0.000000 0
M  V30 46 O 2.432907 -0.381619 0.000000 0
M  V30 47 C 1.566868 -0.881615 0.000000 0
M  V30 48 O 1.566860 -1.881608 0.000000 0
M  V30 49 C 0.700861 -0.381619 0.000000 0
M  V30 50 C -0.165178 -0.881615 0.000000 0
M  V30 51 S -1.031185 -0.381619 0.000000 0
M  V30 52 C 11.092891 -0.381515 0.000000 0
M  V30 53 C 10.226887 -0.881615 0.000000 0
M  V30 END ATOM
M  V30 BEGIN BOND
M  V30 1 1 3 4
M  V30 2 2 4 5
M  V30 3 1 4 6
M  V30 4 1 6 7
M  V30 5 1 7 8
M  V30 6 2 8 9
M  V30 7 1 9 10
M  V30 8 2 10 11
M  V30 9 1 11 12
M  V30 10 1 12 13
M  V30 11 1 13 14
M  V30 12 2 14 15
M  V30 13 1 14 16
M  V30 14 1 11 17
M  V30 15 1 17 18
M  V30 16 1 18 19
M  V30 17 2 18 20
M  V30 18 2 17 21
M  V30 19 1 21 8
M  V30 20 1 22 23
M  V30 21 1 23 24
M  V30 22 1 24 25
M  V30 23 1 25 26
M  V30 24 2 26 27
M  V30 25 1 26 28
M  V30 26 1 28 29
M  V30 27 1 29 30
M  V30 28 1 30 31
M  V30 29 1 31 32
M  V30 30 2 32 33
M  V30 31 1 32 34
M  V30 32 1 34 35
M  V30 33 1 35 36
M  V30 34 1 29 37
M  V30 35 1 37 38
M  V30 36 1 38 39
M  V30 37 2 39 40
M  V30 38 1 39 41
M  V30 39 1 41 42
M  V30 40 1 42 43
M  V30 41 1 43 44
M  V30 42 1 29 45
M  V30 43 1 45 46
M  V30 44 1 46 47
M  V30 45 2 47 48
M  V30 46 1 47 49
M  V30 47 1 49 50
M  V30 48 1 50 51
M  V30 49 1 16 51
M  V30 50 1 52 53
M  V30 51 1 36 53
M  V30 52 1 1 3
M  V30 53 1 2 52
M  V30 END BOND
M  V30 BEGIN SGROUP
M  V30 1 SRU 0 ATOMS=(4 1 3 16 51) CBONDS=(2 49 52) -
M  V30 BRKXYZ=(9 -11.5263 1.6004 0 -11.5263 -1.8637 0 0 0 0) BRKXYZ=(9 -1.4642-
M  V30  1.1005 0 -1.4642 -2.3636 0 0 0 0)
M  V30 2 SRU 0 ATOMS=(4 16 36 51 53) CBONDS=(2 49 51) -
M  V30 BRKXYZ=(9 9.7939 -2.3637 0 9.7939 1.1005 0 0 0 0) BRKXYZ=(9 -1.4642 -2.-
M  V30 3636 0 -1.4642 1.1005 0 0 0 0)
M  V30 3 SRU 0 ATOMS=(4 2 36 52 53) CBONDS=(2 51 53) -
M  V30 BRKXYZ=(9 11.5259 1.1005 0 11.5259 -2.3636 0 0 0 0) BRKXYZ=(9 9.7939 1.-
M  V30 1005 0 9.7939 -2.3637 0 0 0 0)
M  V30 4 SRU 0 ATOMS=(4 1 2 3 52) CBONDS=(2 52 53) -
M  V30 BRKXYZ=(9 -11.5263 9.8683 0 -11.5263 -10.1317 0 0 0 0) BRKXYZ=(9 11.525-
M  V30 9 9.3684 0 11.5259 -10.6316 0 0 0 0)
M  V30 5 SRU 0 ATOMS=(2 22 23) CBONDS=(1 20) -
M  V30 BRKXYZ=(9 6.0798 -5.0646 0 6.5798 -4.1985 0 0 0 0)
M  V30 6 SRU 0 ATOMS=(2 43 44) CBONDS=(1 41) -
M  V30 BRKXYZ=(9 6.2631 4.6184 0 7.2631 4.6184 0 0 0 0)
M  V30 END SGROUP
M  V30 END CTAB
M  END
>  <BIGSMILES_BRACKET_RECORDS_JSON>
{
  "records": [
    {
      "id": 0,
      "bracket_kind": "backbone",
      "pairing_id": "F1/fragments[0]",
      "group_id": "<1:7",
      "ru_midpoint": [
        -6.495241263240973,
        -0.38160181656073033
      ],
      "bond_midpoint": [
        -11.526279787192411,
        -0.13166876989249832
      ],
      "orientation_vector": [
        0.0,
        1.0
      ],
      "half_bracket_size": 1.732068239080402,
      "bond": [
        0,
        2
      ],
      "fragment": "F1",
      "backbone": true,
      "suspended_anchor_atom": null,
      "suspended_reason": null,
      "source_label": "F1/fragments[0]",
      "marker_id": "0",
      "side": "left",
      "connection_group": "<1",
      "marker_type_index": 7
    },
    {
      "id": 1,
      "bracket_kind": "backbone",
      "pairing_id": "F1/fragments[0]",
      "group_id": "<1:7",
      "ru_midpoint": [
        -6.495241263240973,
        -0.38160181656073033
      ],
      "bond_midpoint": [
        -1.464226491253486,
        -0.6315689299078602
      ],
      "orientation_vector": [
        0.0,
        1.0
      ],
      "half_bracket_size": 1.732068239080402,
      "bond": [
        15,
        50
      ],
      "fragment": "F1",
      "backbone": true,
      "suspended_anchor_atom": null,
      "suspended_reason": null,
      "source_label": "F1/fragments[0]",
      "marker_id": "15",
      "side": "right",
      "connection_group": "<1",
      "marker_type_index": 7
    },
    {
      "id": 2,
      "bracket_kind": "backbone",
      "pairing_id": "F1/fragments[1]",
      "group_id": ">2:8",
      "ru_midpoint": [
        4.164860177461684,
        -0.6482836070947617
      ],
      "bond_midpoint": [
        9.793872873364464,
        -0.6316170597701005
      ],
      "orientation_vector": [
        0.0,
        -1.0
      ],
      "half_bracket_size": 1.732068239080402,
      "bond": [
        35,
        52
      ],
      "fragment": "F1",
      "backbone": true,
      "suspended_anchor_atom": null,
      "suspended_reason": null,
      "source_label": "F1/fragments[1]",
      "marker_id": "15",
      "side": "left",
      "connection_group": ">2",
      "marker_type_index": 8
    },
    {
      "id": 3,
      "bracket_kind": "backbone",
      "pairing_id": "F1/fragments[1]",
      "group_id": ">2:8",
      "ru_midpoint": [
        4.164860177461684,
        -0.6482836070947617
      ],
      "bond_midpoint": [
        -1.464226491253486,
        -0.6315689299078602
      ],
      "orientation_vector": [
        0.0,
        -1.0
      ],
      "half_bracket_size": 1.732068239080402,
      "bond": [
        15,
        50
      ],
      "fragment": "F1",
      "backbone": true,
      "suspended_anchor_atom": null,
      "suspended_reason": null,
      "source_label": "F1/fragments[1]",
      "marker_id": "31",
      "side": "right",
      "connection_group": ">2",
      "marker_type_index": 8
    },
    {
      "id": 4,
      "bracket_kind": "pendant",
      "pairing_id": "F1/fragments[1]",
      "group_id": ">2:8",
      "ru_midpoint": [
        4.164860177461684,
        -0.6482836070947617
      ],
      "bond_midpoint": [
        6.329836215794134,
        -4.631557279568276
      ],
      "orientation_vector": [
        -0.5000188200234722,
        -0.8660145377661593
      ],
      "half_bracket_size": 0.5000048399765751,
      "bond": [
        21,
        22
      ],
      "fragment": "F1",
      "backbone": false,
      "suspended_anchor_atom": null,
      "suspended_reason": null,
      "source_label": "F1/fragments[1]",
      "marker_id": "0",
      "side": "left",
      "connection_group": ">2",
      "marker_type_index": 8
    },
    {
      "id": 5,
      "bracket_kind": "pendant",
      "pairing_id": "F1/fragments[1]",
      "group_id": ">2:8",
      "ru_midpoint": [
        4.164860177461684,
        -0.6482836070947617
      ],
      "bond_midpoint": [
        6.76312055812113,
        4.61843727062981
      ],
      "orientation_vector": [
        -1.0,
        0.0
      ],
      "half_bracket_size": 0.4999964199871836,
      "bond": [
        42,
        43
      ],
      "fragment": "F1",
      "backbone": false,
      "suspended_anchor_atom": null,
      "suspended_reason": null,
      "source_label": "F1/fragments[1]",
      "marker_id": "23",
      "side": "right",
      "connection_group": ">2",
      "marker_type_index": 8
    },
    {
      "id": 6,
      "bracket_kind": "backbone",
      "pairing_id": "F1/fragments[2]",
      "group_id": ">1:9",
      "ru_midpoint": [
        10.65990378438591,
        -0.6315713556719005
      ],
      "bond_midpoint": [
        11.525893389959517,
        -0.6315651896650086
      ],
      "orientation_vector": [
        0.0,
        1.0
      ],
      "half_bracket_size": 1.732068239080402,
      "bond": [
        1,
        51
      ],
      "fragment": "F1",
      "backbone": true,
      "suspended_anchor_atom": null,
      "suspended_reason": null,
      "source_label": "F1/fragments[2]",
      "marker_id": "0",
      "side": "left",
      "connection_group": ">1",
      "marker_type_index": 9
    },
    {
      "id": 7,
      "bracket_kind": "backbone",
      "pairing_id": "F1/fragments[2]",
      "group_id": "<2:10",
      "ru_midpoint": [
        10.65990378438591,
        -0.6315713556719005
      ],
      "bond_midpoint": [
        9.793872873364464,
        -0.6316170597701005
      ],
      "orientation_vector": [
        0.0,
        1.0
      ],
      "half_bracket_size": 1.732068239080402,
      "bond": [
        35,
        52
      ],
      "fragment": "F1",
      "backbone": true,
      "suspended_anchor_atom": null,
      "suspended_reason": null,
      "source_label": "F1/fragments[2]",
      "marker_id": "3",
      "side": "right",
      "connection_group": "<2",
      "marker_type_index": 10
    },
    {
      "id": 8,
      "bracket_kind": "backbone",
      "pairing_id": "F1/connected",
      "group_id": "$overall",
      "ru_midpoint": [
        -0.08550052649299111,
        -0.4598079611410068
      ],
      "bond_midpoint": [
        -11.526279787192411,
        -0.13166876989249832
      ],
      "orientation_vector": [
        0.0,
        1.0
      ],
      "half_bracket_size": 10.00000280027638,
      "bond": [
        0,
        2
      ],
      "fragment": "F1",
      "backbone": true,
      "suspended_anchor_atom": null,
      "suspended_reason": null,
      "source_label": "F1/connected",
      "marker_id": "connected-overall-left",
      "side": "left",
      "connection_group": "$overall",
      "marker_type_index": null
    },
    {
      "id": 9,
      "bracket_kind": "backbone",
      "pairing_id": "F1/connected",
      "group_id": "$overall",
      "ru_midpoint": [
        -0.08550052649299111,
        -0.4598079611410068
      ],
      "bond_midpoint": [
        11.525893389959517,
        -0.6315651896650086
      ],
      "orientation_vector": [
        0.0,
        1.0
      ],
      "half_bracket_size": 10.00000280027638,
      "bond": [
        1,
        51
      ],
      "fragment": "F1",
      "backbone": true,
      "suspended_anchor_atom": null,
      "suspended_reason": null,
      "source_label": "F1/connected",
      "marker_id": "connected-overall-right",
      "side": "right",
      "connection_group": "$overall",
      "marker_type_index": null
    }
  ]
}
