
     RDKit          2D

  0  0  0  0  0  0  0  0  0  0999 V3000
M  V30 BEGIN CTAB
M  V30 COUNTS 61 61 7 0 0
M  V30 BEGIN ATOM
M  V30 1 H -15.423322 -0.381619 0.000000 0
M  V30 2 H 15.422940 -0.881615 0.000000 0
M  V30 3 C -14.557326 0.118281 0.000000 0
M  V30 4 C -13.691330 -0.381619 0.000000 0
M  V30 5 O -13.691332 -1.381619 0.000000 0
M  V30 6 O -12.825326 0.118281 0.000000 0
M  V30 7 C -11.959329 -0.381619 0.000000 0
M  V30 8 C -10.959329 -0.381619 0.000000 0
M  V30 9 C -10.459324 0.484415 0.000000 0
M  V30 10 C -9.459314 0.484415 0.000000 0
M  V30 11 C -8.959309 -0.381619 0.000000 0
M  V30 12 C -7.959309 -0.381619 0.000000 0
M  V30 13 O -7.093313 -0.881519 0.000000 0
M  V30 14 C -6.227309 -0.381619 0.000000 0
M  V30 15 O -6.227307 0.618381 0.000000 0
M  V30 16 C -5.361313 -0.881519 0.000000 0
M  V30 17 C -9.459314 -1.247653 0.000000 0
M  V30 18 N -8.959349 -2.113619 0.000000 0 CHG=1
M  V30 19 O -7.959317 -2.113395 0.000000 0 CHG=-1
M  V30 20 O -9.459246 -2.979704 0.000000 0
M  V30 21 C -10.459324 -1.247653 0.000000 0
M  V30 22 R 3.298803 -4.881569 0.000000 8
M  V30 23 S 2.432780 -4.381545 0.000000 0
M  V30 24 C 2.432780 -3.381553 0.000000 0
M  V30 25 C 1.566757 -2.881529 0.000000 0
M  V30 26 C 1.566757 -1.881536 0.000000 0
M  V30 27 O 2.432780 -1.381567 0.000000 0
M  V30 28 O 0.700908 -1.381612 0.000000 0
M  V30 29 C 0.700908 -0.381619 0.000000 0
M  V30 30 C 1.566716 -0.881615 0.000000 0
M  V30 31 O 2.432723 -0.381619 0.000000 0
M  V30 32 C 3.298762 -0.881615 0.000000 0
M  V30 33 O 3.298769 -1.881608 0.000000 0
M  V30 34 C 4.164769 -0.381619 0.000000 0
M  V30 35 C 5.030807 -0.881615 0.000000 0
M  V30 36 S 5.896815 -0.381619 0.000000 0
M  V30 37 C 0.700908 0.618374 0.000000 0
M  V30 38 O 1.567030 1.118517 0.000000 0
M  V30 39 C 1.567030 2.118510 0.000000 0
M  V30 40 O 0.701181 2.618434 0.000000 0
M  V30 41 C 2.433053 2.618479 0.000000 0
M  V30 42 C 2.433053 3.618472 0.000000 0
M  V30 43 S 3.299076 4.118441 0.000000 0
M  V30 44 R 3.299076 5.118434 0.000000 8
M  V30 45 C -0.165131 -0.881615 0.000000 0
M  V30 46 O -1.031138 -0.381619 0.000000 0
M  V30 47 C -1.897176 -0.881615 0.000000 0
M  V30 48 O -1.897184 -1.881608 0.000000 0
M  V30 49 C -2.763184 -0.381619 0.000000 0
M  V30 50 C -3.629222 -0.881615 0.000000 0
M  V30 51 S -4.495230 -0.381619 0.000000 0
M  V30 52 S 12.824848 -0.381715 0.000000 0
M  V30 53 C 11.958844 -0.881615 0.000000 0
M  V30 54 C 11.092848 -0.381715 0.000000 0
M  V30 55 C 10.226843 -0.881615 0.000000 0
M  V30 56 C 9.360847 -0.381715 0.000000 0
M  V30 57 C 8.494843 -0.881615 0.000000 0
M  V30 58 C 7.628846 -0.381715 0.000000 0
M  V30 59 S 6.762842 -0.881615 0.000000 0
M  V30 60 C 14.556936 -0.381515 0.000000 0
M  V30 61 C 13.690931 -0.881615 0.000000 0
M  V30 END ATOM
M  V30 BEGIN BOND
M  V30 1 1 3 4
M  V30 2 2 4 5
M  V30 3 1 4 6
M  V30 4 1 6 7
M  V30 5 1 7 8
M  V30 6 2 8 9
M  V30 7 1 9 10
M  V30 8 2 10 11
M  V30 9 1 11 12
M  V30 10 1 12 13
M  V30 11 1 13 14
M  V30 12 2 14 15
M  V30 13 1 14 16
M  V30 14 1 11 17
M  V30 15 1 17 18
M  V30 16 1 18 19
M  V30 17 2 18 20
M  V30 18 2 17 21
M  V30 19 1 21 8
M  V30 20 1 22 23
M  V30 21 1 23 24
M  V30 22 1 24 25
M  V30 23 1 25 26
M  V30 24 2 26 27
M  V30 25 1 26 28
M  V30 26 1 28 29
M  V30 27 1 29 30
M  V30 28 1 30 31
M  V30 29 1 31 32
M  V30 30 2 32 33
M  V30 31 1 32 34
M  V30 32 1 34 35
M  V30 33 1 35 36
M  V30 34 1 29 37
M  V30 35 1 37 38
M  V30 36 1 38 39
M  V30 37 2 39 40
M  V30 38 1 39 41
M  V30 39 1 41 42
M  V30 40 1 42 43
M  V30 41 1 43 44
M  V30 42 1 29 45
M  V30 43 1 45 46
M  V30 44 1 46 47
M  V30 45 2 47 48
M  V30 46 1 47 49
M  V30 47 1 49 50
M  V30 48 1 50 51
M  V30 49 1 16 51
M  V30 50 1 52 53
M  V30 51 1 53 54
M  V30 52 1 54 55
M  V30 53 1 55 56
M  V30 54 1 56 57
M  V30 55 1 57 58
M  V30 56 1 58 59
M  V30 57 1 36 59
M  V30 58 1 60 61
M  V30 59 1 52 61
M  V30 60 1 1 3
M  V30 61 1 2 60
M  V30 END BOND
M  V30 BEGIN SGROUP
M  V30 1 SRU 0 ATOMS=(4 1 3 16 51) CBONDS=(2 49 60) -
M  V30 BRKXYZ=(9 -14.9903 1.6004 0 -14.9903 -1.8637 0 0 0 0) BRKXYZ=(9 -4.9283-
M  V30  1.1005 0 -4.9283 -2.3636 0 0 0 0)
M  V30 2 SRU 0 ATOMS=(4 16 36 51 59) CBONDS=(2 49 57) -
M  V30 BRKXYZ=(9 6.3298 -2.3637 0 6.3298 1.1005 0 0 0 0) BRKXYZ=(9 -4.9283 -2.-
M  V30 3636 0 -4.9283 1.1005 0 0 0 0)
M  V30 3 SRU 0 ATOMS=(4 36 52 59 61) CBONDS=(2 57 59) -
M  V30 BRKXYZ=(9 13.2579 1.1004 0 13.2579 -2.3637 0 0 0 0) BRKXYZ=(9 6.3298 1.-
M  V30 1005 0 6.3298 -2.3637 0 0 0 0)
M  V30 4 SRU 0 ATOMS=(4 2 52 60 61) CBONDS=(2 59 61) -
M  V30 BRKXYZ=(9 14.9899 1.1005 0 14.9899 -2.3636 0 0 0 0) BRKXYZ=(9 13.2579 1-
M  V30 .1004 0 13.2579 -2.3637 0 0 0 0)
M  V30 5 SRU 0 ATOMS=(4 1 2 3 60) CBONDS=(2 60 61) -
M  V30 BRKXYZ=(9 -14.9903 9.8683 0 -14.9903 -10.1317 0 0 0 0) BRKXYZ=(9 14.989-
M  V30 9 9.3684 0 14.9899 -10.6316 0 0 0 0)
M  V30 6 SRU 0 ATOMS=(2 22 23) CBONDS=(1 20) -
M  V30 BRKXYZ=(9 2.6158 -5.0646 0 3.1158 -4.1985 0 0 0 0)
M  V30 7 SRU 0 ATOMS=(2 43 44) CBONDS=(1 41) -
M  V30 BRKXYZ=(9 2.7991 4.6184 0 3.7991 4.6184 0 0 0 0)
M  V30 END SGROUP
M  V30 END CTAB
M  END
>  <BIGSMILES_BRACKET_RECORDS_JSON>
{
  "records": [
    {
      "id": 0,
      "bracket_kind": "backbone",
      "pairing_id": "F1/fragments[0]",
      "group_id": "<1:7",
      "ru_midpoint": [
        -9.959285810907925,
        -0.38160181656072983
      ],
      "bond_midpoint": [
        -14.990324334859363,
        -0.1316687698924982
      ],
      "orientation_vector": [
        0.0,
        1.0
      ],
      "half_bracket_size": 1.732068239080402,
      "bond": [
        0,
        2
      ],
      "fragment": "F1",
      "backbone": true,
      "suspended_anchor_atom": null,
      "suspended_reason": null,
      "source_label": "F1/fragments[0]",
      "marker_id": "0",
      "side": "left",
      "connection_group": "<1",
      "marker_type_index": 7
    },
    {
      "id": 1,
      "bracket_kind": "backbone",
      "pairing_id": "F1/fragments[0]",
      "group_id": "<1:7",
      "ru_midpoint": [
        -9.959285810907925,
        -0.38160181656072983
      ],
      "bond_midpoint": [
        -4.928271038920437,
        -0.6315689299078601
      ],
      "orientation_vector": [
        0.0,
        1.0
      ],
      "half_bracket_size": 1.732068239080402,
      "bond": [
        15,
        50
      ],
      "fragment": "F1",
      "backbone": true,
      "suspended_anchor_atom": null,
      "suspended_reason": null,
      "source_label": "F1/fragments[0]",
      "marker_id": "15",
      "side": "right",
      "connection_group": "<1",
      "marker_type_index": 7
    },
    {
      "id": 2,
      "bracket_kind": "backbone",
      "pairing_id": "F1/fragments[1]",
      "group_id": ">2:8",
      "ru_midpoint": [
        0.7008156297947323,
        -0.6482836070947616
      ],
      "bond_midpoint": [
        6.3298283256975125,
        -0.6316170597701004
      ],
      "orientation_vector": [
        0.0,
        -1.0
      ],
      "half_bracket_size": 1.732068239080402,
      "bond": [
        35,
        58
      ],
      "fragment": "F1",
      "backbone": true,
      "suspended_anchor_atom": null,
      "suspended_reason": null,
      "source_label": "F1/fragments[1]",
      "marker_id": "15",
      "side": "left",
      "connection_group": ">2",
      "marker_type_index": 8
    },
    {
      "id": 3,
      "bracket_kind": "backbone",
      "pairing_id": "F1/fragments[1]",
      "group_id": ">2:8",
      "ru_midpoint": [
        0.7008156297947323,
        -0.6482836070947616
      ],
      "bond_midpoint": [
        -4.928271038920437,
        -0.6315689299078601
      ],
      "orientation_vector": [
        0.0,
        -1.0
      ],
      "half_bracket_size": 1.732068239080402,
      "bond": [
        15,
        50
      ],
      "fragment": "F1",
      "backbone": true,
      "suspended_anchor_atom": null,
      "suspended_reason": null,
      "source_label": "F1/fragments[1]",
      "marker_id": "31",
      "side": "right",
      "connection_group": ">2",
      "marker_type_index": 8
    },
    {
      "id": 4,
      "bracket_kind": "pendant",
      "pairing_id": "F1/fragments[1]",
      "group_id": ">2:8",
      "ru_midpoint": [
        0.7008156297947323,
        -0.6482836070947616
      ],
      "bond_midpoint": [
        2.8657916681271827,
        -4.631557279568275
      ],
      "orientation_vector": [
        -0.5000188200234722,
        -0.8660145377661593
      ],
      "half_bracket_size": 0.5000048399765751,
      "bond": [
        21,
        22
      ],
      "fragment": "F1",
      "backbone": false,
      "suspended_anchor_atom": null,
      "suspended_reason": null,
      "source_label": "F1/fragments[1]",
      "marker_id": "0",
      "side": "left",
      "connection_group": ">2",
      "marker_type_index": 8
    },
    {
      "id": 5,
      "bracket_kind": "pendant",
      "pairing_id": "F1/fragments[1]",
      "group_id": ">2:8",
      "ru_midpoint": [
        0.7008156297947323,
        -0.6482836070947616
      ],
      "bond_midpoint": [
        3.299076010454179,
        4.61843727062981
      ],
      "orientation_vector": [
        -1.0,
        0.0
      ],
      "half_bracket_size": 0.4999964199871836,
      "bond": [
        42,
        43
      ],
      "fragment": "F1",
      "backbone": false,
      "suspended_anchor_atom": null,
      "suspended_reason": null,
      "source_label": "F1/fragments[1]",
      "marker_id": "23",
      "side": "right",
      "connection_group": ">2",
      "marker_type_index": 8
    },
    {
      "id": 6,
      "bracket_kind": "backbone",
      "pairing_id": "F1/fragments[2]",
      "group_id": ">2:8",
      "ru_midpoint": [
        9.793845089407046,
        -0.6316651896323404
      ],
      "bond_midpoint": [
        13.257889637073996,
        -0.6316651896323409
      ],
      "orientation_vector": [
        0.0,
        1.0
      ],
      "half_bracket_size": 1.732068239080402,
      "bond": [
        51,
        60
      ],
      "fragment": "F1",
      "backbone": true,
      "suspended_anchor_atom": null,
      "suspended_reason": null,
      "source_label": "F1/fragments[2]",
      "marker_id": "0",
      "side": "left",
      "connection_group": ">2",
      "marker_type_index": 8
    },
    {
      "id": 7,
      "bracket_kind": "backbone",
      "pairing_id": "F1/fragments[2]",
      "group_id": ">2:8",
      "ru_midpoint": [
        9.793845089407046,
        -0.6316651896323404
      ],
      "bond_midpoint": [
        6.3298283256975125,
        -0.6316170597701004
      ],
      "orientation_vector": [
        0.0,
        1.0
      ],
      "half_bracket_size": 1.732068239080402,
      "bond": [
        35,
        58
      ],
      "fragment": "F1",
      "backbone": true,
      "suspended_anchor_atom": null,
      "suspended_reason": null,
      "source_label": "F1/fragments[2]",
      "marker_id": "9",
      "side": "right",
      "connection_group": ">2",
      "marker_type_index": 8
    },
    {
      "id": 8,
      "bracket_kind": "backbone",
      "pairing_id": "F1/fragments[3]",
      "group_id": ">1:9",
      "ru_midpoint": [
        14.123948332052862,
        -0.6315713556719011
      ],
      "bond_midpoint": [
        14.989937937626465,
        -0.6315651896650094
      ],
      "orientation_vector": [
        0.0,
        1.0
      ],
      "half_bracket_size": 1.732068239080402,
      "bond": [
        1,
        59
      ],
      "fragment": "F1",
      "backbone": true,
      "suspended_anchor_atom": null,
      "suspended_reason": null,
      "source_label": "F1/fragments[3]",
      "marker_id": "0",
      "side": "left",
      "connection_group": ">1",
      "marker_type_index": 9
    },
    {
      "id": 9,
      "bracket_kind": "backbone",
      "pairing_id": "F1/fragments[3]",
      "group_id": "<2:10",
      "ru_midpoint": [
        14.123948332052862,
        -0.6315713556719011
      ],
      "bond_midpoint": [
        13.257889637073996,
        -0.6316651896323409
      ],
      "orientation_vector": [
        0.0,
        1.0
      ],
      "half_bracket_size": 1.732068239080402,
      "bond": [
        51,
        60
      ],
      "fragment": "F1",
      "backbone": true,
      "suspended_anchor_atom": null,
      "suspended_reason": null,
      "source_label": "F1/fragments[3]",
      "marker_id": "3",
      "side": "right",
      "connection_group": "<2",
      "marker_type_index": 10
    },
    {
      "id": 10,
      "bracket_kind": "backbone",
      "pairing_id": "F1/connected",
      "group_id": "$overall",
      "ru_midpoint": [
        -0.10274030150630509,
        -0.4969639311212824
      ],
      "bond_midpoint": [
        -14.990324334859363,
        -0.1316687698924982
      ],
      "orientation_vector": [
        0.0,
        1.0
      ],
      "half_bracket_size": 10.00000280027638,
      "bond": [
        0,
        2
      ],
      "fragment": "F1",
      "backbone": true,
      "suspended_anchor_atom": null,
      "suspended_reason": null,
      "source_label": "F1/connected",
      "marker_id": "connected-overall-left",
      "side": "left",
      "connection_group": "$overall",
      "marker_type_index": null
    },
    {
      "id": 11,
      "bracket_kind": "backbone",
      "pairing_id": "F1/connected",
      "group_id": "$overall",
      "ru_midpoint": [
        -0.10274030150630509,
        -0.4969639311212824
      ],
      "bond_midpoint": [
        14.989937937626465,
        -0.6315651896650094
      ],
      "orientation_vector": [
        0.0,
        1.0
      ],
      "half_bracket_size": 10.00000280027638,
      "bond": [
        1,
        59
      ],
      "fragment": "F1",
      "backbone": true,
      "suspended_anchor_atom": null,
      "suspended_reason": null,
      "source_label": "F1/connected",
      "marker_id": "connected-overall-right",
      "side": "right",
      "connection_group": "$overall",
      "marker_type_index": null
    }
  ]
}
