
     RDKit          2D

  0  0  0  0  0  0  0  0  0  0999 V3000
M  V30 BEGIN CTAB
M  V30 COUNTS 76 75 8 0 0
M  V30 BEGIN ATOM
M  V30 1 N 1.991401 0.748100 0.000000 0
M  V30 2 C 2.857406 1.248000 0.000000 0
M  V30 3 C 3.723402 0.748100 0.000000 0
M  V30 4 N 6.668996 1.248000 0.000000 0
M  V30 5 C 1.125405 1.248000 0.000000 0
M  V30 6 C 0.259580 0.748150 0.000000 0
M  V30 7 C -0.606595 1.248000 0.000000 0
M  V30 8 O -0.606697 2.248001 0.000000 0
M  V30 9 H -7.534336 1.248007 0.000000 0
M  V30 10 N -1.472624 0.748006 0.000000 0
M  V30 11 C -2.338587 1.248007 0.000000 0
M  V30 12 C -3.204512 0.748006 0.000000 0
M  V30 13 N -4.070675 1.248007 0.000000 0
M  V30 14 C -4.070675 2.247921 0.000000 0
M  V30 15 C -3.204770 2.748022 0.000000 0
M  V30 16 C -3.204943 3.748036 0.000000 0
M  V30 17 O -4.071021 4.247949 0.000000 0
M  V30 18 R -2.338865 4.248037 0.000000 4
M  V30 19 C -4.936702 0.748006 0.000000 0
M  V30 20 C -5.802743 1.248007 0.000000 0
M  V30 21 C -6.668539 0.748006 0.000000 0
M  V30 22 O -6.668478 -0.252039 0.000000 0
M  V30 23 C 1.991401 -0.251900 0.000000 0
M  V30 24 C 2.491251 -1.117725 0.000000 0
M  V30 25 C 1.991401 -1.983900 0.000000 0
M  V30 26 O 0.991401 -1.984002 0.000000 0
M  V30 27 H 1.991394 -8.911641 0.000000 0
M  V30 28 N 2.491395 -2.849929 0.000000 0
M  V30 29 C 1.991394 -3.715892 0.000000 0
M  V30 30 C 2.491395 -4.581817 0.000000 0
M  V30 31 N 1.991394 -5.447980 0.000000 0
M  V30 32 C 0.991480 -5.447980 0.000000 0
M  V30 33 C 0.491379 -4.582075 0.000000 0
M  V30 34 C -0.508635 -4.582248 0.000000 0
M  V30 35 O -1.008548 -5.448326 0.000000 0
M  V30 36 R -1.008635 -3.716170 0.000000 4
M  V30 37 C 2.491395 -6.314007 0.000000 0
M  V30 38 C 1.991394 -7.180048 0.000000 0
M  V30 39 C 2.491395 -8.045844 0.000000 0
M  V30 40 O 3.491441 -8.045783 0.000000 0
M  V30 41 C 6.668996 0.248000 0.000000 0
M  V30 42 C 7.168846 -0.617825 0.000000 0
M  V30 43 C 6.668996 -1.484000 0.000000 0
M  V30 44 O 5.668996 -1.484102 0.000000 0
M  V30 45 H 6.668989 -8.411740 0.000000 0
M  V30 46 N 7.168990 -2.350029 0.000000 0
M  V30 47 C 6.668989 -3.215992 0.000000 0
M  V30 48 C 7.168990 -4.081917 0.000000 0
M  V30 49 N 6.668989 -4.948080 0.000000 0
M  V30 50 C 5.669075 -4.948080 0.000000 0
M  V30 51 C 5.168974 -4.082175 0.000000 0
M  V30 52 C 4.168960 -4.082348 0.000000 0
M  V30 53 O 3.669047 -4.948426 0.000000 0
M  V30 54 R 3.668959 -3.216270 0.000000 4
M  V30 55 C 7.168990 -5.814107 0.000000 0
M  V30 56 C 6.668989 -6.680148 0.000000 0
M  V30 57 C 7.168990 -7.545944 0.000000 0
M  V30 58 O 8.169036 -7.545883 0.000000 0
M  V30 59 C 7.535079 0.748100 0.000000 0
M  V30 60 C 8.400905 1.247950 0.000000 0
M  V30 61 C 9.267080 0.748100 0.000000 0
M  V30 62 O 9.267182 -0.251900 0.000000 0
M  V30 63 H 16.194820 0.748093 0.000000 0
M  V30 64 N 10.133109 1.248094 0.000000 0
M  V30 65 C 10.999071 0.748093 0.000000 0
M  V30 66 C 11.864997 1.248094 0.000000 0
M  V30 67 N 12.731160 0.748093 0.000000 0
M  V30 68 C 12.731160 -0.251821 0.000000 0
M  V30 69 C 11.865255 -0.751922 0.000000 0
M  V30 70 C 11.865428 -1.751936 0.000000 0
M  V30 71 O 12.731506 -2.251849 0.000000 0
M  V30 72 R 10.999350 -2.251936 0.000000 4
M  V30 73 C 13.597187 1.248094 0.000000 0
M  V30 74 C 14.463228 0.748093 0.000000 0
M  V30 75 C 15.329024 1.248094 0.000000 0
M  V30 76 O 15.328963 2.248140 0.000000 0
M  V30 END ATOM
M  V30 BEGIN BOND
M  V30 1 1 1 2
M  V30 2 1 2 3
M  V30 3 1 3 4
M  V30 4 1 5 6
M  V30 5 1 6 7
M  V30 6 2 7 8
M  V30 7 1 10 11
M  V30 8 1 11 12
M  V30 9 1 12 13
M  V30 10 1 13 14
M  V30 11 1 14 15
M  V30 12 1 15 16
M  V30 13 2 16 17
M  V30 14 1 16 18
M  V30 15 1 13 19
M  V30 16 1 19 20
M  V30 17 1 20 21
M  V30 18 2 21 22
M  V30 19 1 7 10
M  V30 20 1 9 21
M  V30 21 1 1 5
M  V30 22 1 23 24
M  V30 23 1 24 25
M  V30 24 2 25 26
M  V30 25 1 28 29
M  V30 26 1 29 30
M  V30 27 1 30 31
M  V30 28 1 31 32
M  V30 29 1 32 33
M  V30 30 1 33 34
M  V30 31 2 34 35
M  V30 32 1 34 36
M  V30 33 1 31 37
M  V30 34 1 37 38
M  V30 35 1 38 39
M  V30 36 2 39 40
M  V30 37 1 25 28
M  V30 38 1 27 39
M  V30 39 1 1 23
M  V30 40 1 41 42
M  V30 41 1 42 43
M  V30 42 2 43 44
M  V30 43 1 46 47
M  V30 44 1 47 48
M  V30 45 1 48 49
M  V30 46 1 49 50
M  V30 47 1 50 51
M  V30 48 1 51 52
M  V30 49 2 52 53
M  V30 50 1 52 54
M  V30 51 1 49 55
M  V30 52 1 55 56
M  V30 53 1 56 57
M  V30 54 2 57 58
M  V30 55 1 43 46
M  V30 56 1 45 57
M  V30 57 1 4 41
M  V30 58 1 59 60
M  V30 59 1 60 61
M  V30 60 2 61 62
M  V30 61 1 64 65
M  V30 62 1 65 66
M  V30 63 1 66 67
M  V30 64 1 67 68
M  V30 65 1 68 69
M  V30 66 1 69 70
M  V30 67 2 70 71
M  V30 68 1 70 72
M  V30 69 1 67 73
M  V30 70 1 73 74
M  V30 71 1 74 75
M  V30 72 2 75 76
M  V30 73 1 61 64
M  V30 74 1 63 75
M  V30 75 1 4 59
M  V30 END BOND
M  V30 BEGIN SGROUP
M  V30 1 SRU 0 ATOMS=(4 61 63 64 75) CBONDS=(2 73 74) -
M  V30 BRKXYZ=(9 9.7001 1.4981 0 9.7001 0.4981 0 0 0 0) BRKXYZ=(9 15.7619 1.49-
M  V30 81 0 15.7619 0.4981 0 0 0 0)
M  V30 2 SRU 0 ATOMS=(4 43 45 46 57) CBONDS=(2 55 56) -
M  V30 BRKXYZ=(9 7.4190 -1.9170 0 6.4190 -1.9170 0 0 0 0) BRKXYZ=(9 7.4190 -7.-
M  V30 9788 0 6.4190 -7.9788 0 0 0 0)
M  V30 3 SRU 0 ATOMS=(4 25 27 28 39) CBONDS=(2 37 38) -
M  V30 BRKXYZ=(9 2.7414 -2.4169 0 1.7414 -2.4169 0 0 0 0) BRKXYZ=(9 2.7414 -8.-
M  V30 4787 0 1.7414 -8.4787 0 0 0 0)
M  V30 4 SRU 0 ATOMS=(4 7 9 10 21) CBONDS=(2 19 20) -
M  V30 BRKXYZ=(9 -1.0396 0.4980 0 -1.0396 1.4980 0 0 0 0) BRKXYZ=(9 -7.1014 0.-
M  V30 4980 0 -7.1014 1.4980 0 0 0 0)
M  V30 5 SRU 0 ATOMS=(2 70 72) CBONDS=(1 68) -
M  V30 BRKXYZ=(9 11.6824 -2.4350 0 11.1824 -1.5689 0 0 0 0)
M  V30 6 SRU 0 ATOMS=(2 52 54) CBONDS=(1 50) -
M  V30 BRKXYZ=(9 3.4859 -3.8993 0 4.3520 -3.3993 0 0 0 0)
M  V30 7 SRU 0 ATOMS=(2 34 36) CBONDS=(1 32) -
M  V30 BRKXYZ=(9 -1.1917 -4.3992 0 -0.3256 -3.8992 0 0 0 0)
M  V30 8 SRU 0 ATOMS=(2 16 18) CBONDS=(1 14) -
M  V30 BRKXYZ=(9 -3.0219 4.4311 0 -2.5219 3.5650 0 0 0 0)
M  V30 END SGROUP
M  V30 END CTAB
M  END
>  <BIGSMILES_BRACKET_RECORDS_JSON>
{
  "records": [
    {
      "id": 0,
      "bracket_kind": "backbone",
      "pairing_id": "F8/fragments[0]",
      "group_id": "<1:3",
      "ru_midpoint": [
        12.730635471168549,
        0.9703016464027977
      ],
      "bond_midpoint": [
        9.700094401278388,
        0.9980971293118679
      ],
      "orientation_vector": [
        0.0,
        1.0
      ],
      "half_bracket_size": 0.5000009984575862,
      "bond": [
        60,
        63
      ],
      "fragment": "F8",
      "backbone": true,
      "suspended_anchor_atom": null,
      "suspended_reason": null,
      "source_label": "F8/fragments[0]",
      "marker_id": "0",
      "side": "left",
      "connection_group": "<1",
      "marker_type_index": 3
    },
    {
      "id": 1,
      "bracket_kind": "backbone",
      "pairing_id": "F8/fragments[0]",
      "group_id": ">1:4",
      "ru_midpoint": [
        12.730635471168549,
        0.9703016464027977
      ],
      "bond_midpoint": [
        15.761922127633333,
        0.9980935993795826
      ],
      "orientation_vector": [
        0.0,
        1.0
      ],
      "half_bracket_size": 0.5000009984575862,
      "bond": [
        62,
        74
      ],
      "fragment": "F8",
      "backbone": true,
      "suspended_anchor_atom": null,
      "suspended_reason": null,
      "source_label": "F8/fragments[0]",
      "marker_id": "14",
      "side": "right",
      "connection_group": ">1",
      "marker_type_index": 4
    },
    {
      "id": 2,
      "bracket_kind": "pendant",
      "pairing_id": "F8/fragments[0]",
      "group_id": ">1:4",
      "ru_midpoint": [
        12.730635471168549,
        0.9703016464027977
      ],
      "bond_midpoint": [
        11.432388790445085,
        -2.0019361175909505
      ],
      "orientation_vector": [
        0.49997778345754523,
        -0.8660382301312569
      ],
      "half_bracket_size": 0.5000228894760721,
      "bond": [
        69,
        71
      ],
      "fragment": "F8",
      "backbone": false,
      "suspended_anchor_atom": null,
      "suspended_reason": null,
      "source_label": "F8/fragments[0]",
      "marker_id": "9",
      "side": "right",
      "connection_group": ">1",
      "marker_type_index": 4
    },
    {
      "id": 3,
      "bracket_kind": "backbone",
      "pairing_id": "F7/fragments[0]",
      "group_id": "<1:3",
      "ru_midpoint": [
        6.954703849911442,
        -4.9480309618552525
      ],
      "bond_midpoint": [
        6.918993022811044,
        -1.9170146195000508
      ],
      "orientation_vector": [
        1.0,
        0.0
      ],
      "half_bracket_size": 0.5000009984575862,
      "bond": [
        42,
        45
      ],
      "fragment": "F7",
      "backbone": true,
      "suspended_anchor_atom": null,
      "suspended_reason": null,
      "source_label": "F7/fragments[0]",
      "marker_id": "0",
      "side": "left",
      "connection_group": "<1",
      "marker_type_index": 3
    },
    {
      "id": 4,
      "bracket_kind": "backbone",
      "pairing_id": "F7/fragments[0]",
      "group_id": ">1:4",
      "ru_midpoint": [
        6.954703849911442,
        -4.9480309618552525
      ],
      "bond_midpoint": [
        6.918989492878757,
        -7.978842345854999
      ],
      "orientation_vector": [
        1.0,
        0.0
      ],
      "half_bracket_size": 0.5000009984575862,
      "bond": [
        44,
        56
      ],
      "fragment": "F7",
      "backbone": true,
      "suspended_anchor_atom": null,
      "suspended_reason": null,
      "source_label": "F7/fragments[0]",
      "marker_id": "14",
      "side": "right",
      "connection_group": ">1",
      "marker_type_index": 4
    },
    {
      "id": 5,
      "bracket_kind": "pendant",
      "pairing_id": "F7/fragments[0]",
      "group_id": ">1:4",
      "ru_midpoint": [
        6.954703849911442,
        -4.9480309618552525
      ],
      "bond_midpoint": [
        3.9189597759082258,
        -3.649309008666747
      ],
      "orientation_vector": [
        -0.866038230131257,
        -0.49997778345754507
      ],
      "half_bracket_size": 0.5000228894760721,
      "bond": [
        51,
        53
      ],
      "fragment": "F7",
      "backbone": false,
      "suspended_anchor_atom": null,
      "suspended_reason": null,
      "source_label": "F7/fragments[0]",
      "marker_id": "9",
      "side": "right",
      "connection_group": ">1",
      "marker_type_index": 4
    },
    {
      "id": 6,
      "bracket_kind": "backbone",
      "pairing_id": "F6/fragments[0]",
      "group_id": "<1:3",
      "ru_midpoint": [
        2.2771090812206496,
        -5.447931121870615
      ],
      "bond_midpoint": [
        2.2413982541202504,
        -2.416914779515413
      ],
      "orientation_vector": [
        1.0,
        0.0
      ],
      "half_bracket_size": 0.5000009984575862,
      "bond": [
        24,
        27
      ],
      "fragment": "F6",
      "backbone": true,
      "suspended_anchor_atom": null,
      "suspended_reason": null,
      "source_label": "F6/fragments[0]",
      "marker_id": "0",
      "side": "left",
      "connection_group": "<1",
      "marker_type_index": 3
    },
    {
      "id": 7,
      "bracket_kind": "backbone",
      "pairing_id": "F6/fragments[0]",
      "group_id": ">1:4",
      "ru_midpoint": [
        2.2771090812206496,
        -5.447931121870615
      ],
      "bond_midpoint": [
        2.2413947241879644,
        -8.478742505870361
      ],
      "orientation_vector": [
        1.0,
        0.0
      ],
      "half_bracket_size": 0.5000009984575862,
      "bond": [
        26,
        38
      ],
      "fragment": "F6",
      "backbone": true,
      "suspended_anchor_atom": null,
      "suspended_reason": null,
      "source_label": "F6/fragments[0]",
      "marker_id": "14",
      "side": "right",
      "connection_group": ">1",
      "marker_type_index": 4
    },
    {
      "id": 8,
      "bracket_kind": "pendant",
      "pairing_id": "F6/fragments[0]",
      "group_id": ">1:4",
      "ru_midpoint": [
        2.2771090812206496,
        -5.447931121870615
      ],
      "bond_midpoint": [
        -0.7586349927825682,
        -4.149209168682109
      ],
      "orientation_vector": [
        -0.866038230131257,
        -0.49997778345754507
      ],
      "half_bracket_size": 0.5000228894760721,
      "bond": [
        33,
        35
      ],
      "fragment": "F6",
      "backbone": false,
      "suspended_anchor_atom": null,
      "suspended_reason": null,
      "source_label": "F6/fragments[0]",
      "marker_id": "9",
      "side": "right",
      "connection_group": ">1",
      "marker_type_index": 4
    },
    {
      "id": 9,
      "bracket_kind": "backbone",
      "pairing_id": "F5/fragments[0]",
      "group_id": "<1:3",
      "ru_midpoint": [
        -4.070626203760976,
        0.9622925236338179
      ],
      "bond_midpoint": [
        -1.039609861405775,
        0.9980033507342174
      ],
      "orientation_vector": [
        0.0,
        -1.0
      ],
      "half_bracket_size": 0.5000009984575862,
      "bond": [
        6,
        9
      ],
      "fragment": "F5",
      "backbone": true,
      "suspended_anchor_atom": null,
      "suspended_reason": null,
      "source_label": "F5/fragments[0]",
      "marker_id": "0",
      "side": "left",
      "connection_group": "<1",
      "marker_type_index": 3
    },
    {
      "id": 10,
      "bracket_kind": "backbone",
      "pairing_id": "F5/fragments[0]",
      "group_id": ">1:4",
      "ru_midpoint": [
        -4.070626203760976,
        0.9622925236338179
      ],
      "bond_midpoint": [
        -7.1014375877607225,
        0.9980068806665027
      ],
      "orientation_vector": [
        0.0,
        -1.0
      ],
      "half_bracket_size": 0.5000009984575862,
      "bond": [
        8,
        20
      ],
      "fragment": "F5",
      "backbone": true,
      "suspended_anchor_atom": null,
      "suspended_reason": null,
      "source_label": "F5/fragments[0]",
      "marker_id": "14",
      "side": "right",
      "connection_group": ">1",
      "marker_type_index": 4
    },
    {
      "id": 11,
      "bracket_kind": "pendant",
      "pairing_id": "F5/fragments[0]",
      "group_id": ">1:4",
      "ru_midpoint": [
        -4.070626203760976,
        0.9622925236338179
      ],
      "bond_midpoint": [
        -2.7719042505724723,
        3.998036597637036
      ],
      "orientation_vector": [
        -0.49997778345754523,
        0.8660382301312569
      ],
      "half_bracket_size": 0.5000228894760721,
      "bond": [
        15,
        17
      ],
      "fragment": "F5",
      "backbone": false,
      "suspended_anchor_atom": null,
      "suspended_reason": null,
      "source_label": "F5/fragments[0]",
      "marker_id": "9",
      "side": "right",
      "connection_group": ">1",
      "marker_type_index": 4
    }
  ]
}
