
     RDKit          2D

  0  0  0  0  0  0  0  0  0  0999 V3000
M  V30 BEGIN CTAB
M  V30 COUNTS 29 30 1 0 0
M  V30 BEGIN ATOM
M  V30 1 H -8.763001 -0.131603 0.000000 0
M  V30 2 H 8.762673 -0.631569 0.000000 0
M  V30 3 C -5.299192 -0.131569 0.000000 0
M  V30 4 O -5.299194 0.868432 0.000000 0
M  V30 5 N -4.433130 -0.631569 0.000000 0
M  V30 6 C -3.433130 -0.631569 0.000000 0
M  V30 7 C -2.933154 0.234415 0.000000 0
M  V30 8 C -1.933201 0.234415 0.000000 0
M  V30 9 C -1.433225 -0.631569 0.000000 0
M  V30 10 C -1.933201 -1.497553 0.000000 0
M  V30 11 C -2.933154 -1.497553 0.000000 0
M  V30 12 C -0.433225 -0.631569 0.000000 0
M  V30 13 C 0.566775 -0.631569 0.000000 0
M  V30 14 C 1.066751 0.234415 0.000000 0
M  V30 15 C 2.066703 0.234415 0.000000 0
M  V30 16 C 2.566680 -0.631569 0.000000 0
M  V30 17 C 2.066703 -1.497553 0.000000 0
M  V30 18 C 1.066751 -1.497553 0.000000 0
M  V30 19 N 3.566680 -0.631569 0.000000 0
M  V30 20 C 4.432676 -0.131669 0.000000 0
M  V30 21 O 4.432674 0.868332 0.000000 0
M  V30 22 N 5.298680 -0.631569 0.000000 0
M  V30 23 C 6.164676 -0.131669 0.000000 0
M  V30 24 C 7.030681 -0.631569 0.000000 0
M  V30 25 N 7.896677 -0.131669 0.000000 0
M  V30 26 C -7.897062 -0.631615 0.000000 0
M  V30 27 C -7.897062 -1.631540 0.000000 0
M  V30 28 C -7.031122 -0.131603 0.000000 0
M  V30 29 O -6.165191 -0.631615 0.000000 0
M  V30 END ATOM
M  V30 BEGIN BOND
M  V30 1 2 3 4
M  V30 2 1 3 5
M  V30 3 1 5 6
M  V30 4 2 6 7
M  V30 5 1 7 8
M  V30 6 2 8 9
M  V30 7 1 9 10
M  V30 8 2 10 11
M  V30 9 1 9 12
M  V30 10 1 12 13
M  V30 11 2 13 14
M  V30 12 1 14 15
M  V30 13 2 15 16
M  V30 14 1 16 17
M  V30 15 2 17 18
M  V30 16 1 16 19
M  V30 17 1 19 20
M  V30 18 2 20 21
M  V30 19 1 20 22
M  V30 20 1 22 23
M  V30 21 1 23 24
M  V30 22 1 24 25
M  V30 23 1 11 6
M  V30 24 1 18 13
M  V30 25 1 26 27
M  V30 26 1 26 28
M  V30 27 1 28 29
M  V30 28 1 3 29
M  V30 29 1 1 26
M  V30 30 1 2 25
M  V30 END BOND
M  V30 BEGIN SGROUP
M  V30 1 SRU 0 ATOMS=(4 1 3 26 29) CBONDS=(2 28 29) -
M  V30 BRKXYZ=(9 -8.3300 0.1184 0 -8.3300 -0.8816 0 0 0 0) BRKXYZ=(9 -5.7322 0-
M  V30 .1184 0 -5.7322 -0.8816 0 0 0 0)
M  V30 END SGROUP
M  V30 END CTAB
M  END
>  <BIGSMILES_BRACKET_RECORDS_JSON>
{
  "records": [
    {
      "id": 0,
      "bracket_kind": "backbone",
      "pairing_id": "F2/fragments[0]",
      "group_id": "<1:3",
      "ru_midpoint": [
        -7.031101787541692,
        -0.3316077037564047
      ],
      "bond_midpoint": [
        -8.330031504891565,
        -0.38160901658689783
      ],
      "orientation_vector": [
        0.0,
        1.0
      ],
      "half_bracket_size": 0.5000123282855893,
      "bond": [
        0,
        25
      ],
      "fragment": "F2",
      "backbone": true,
      "suspended_anchor_atom": null,
      "suspended_reason": null,
      "source_label": "F2/fragments[0]",
      "marker_id": "0",
      "side": "left",
      "connection_group": "<1",
      "marker_type_index": 3
    },
    {
      "id": 1,
      "bracket_kind": "backbone",
      "pairing_id": "F2/fragments[0]",
      "group_id": ">1:4",
      "ru_midpoint": [
        -7.031101787541692,
        -0.3316077037564047
      ],
      "bond_midpoint": [
        -5.732191351108274,
        -0.38159197942548484
      ],
      "orientation_vector": [
        0.0,
        1.0
      ],
      "half_bracket_size": 0.5000123282855893,
      "bond": [
        2,
        28
      ],
      "fragment": "F2",
      "backbone": true,
      "suspended_anchor_atom": null,
      "suspended_reason": null,
      "source_label": "F2/fragments[0]",
      "marker_id": "5",
      "side": "right",
      "connection_group": ">1",
      "marker_type_index": 4
    }
  ]
}
