
     RDKit          2D

  0  0  0  0  0  0  0  0  0  0999 V3000
M  V30 BEGIN CTAB
M  V30 COUNTS 78 80 6 0 0
M  V30 BEGIN ATOM
M  V30 1 N 7.275199 -3.093102 0.000000 0
M  V30 2 C 10.141158 -2.593095 0.000000 0
M  V30 3 C 11.141158 -2.593095 0.000000 0
M  V30 4 C 11.641167 -1.727053 0.000000 0
M  V30 5 C 12.641186 -1.727053 0.000000 0
M  V30 6 C 11.641167 -3.459137 0.000000 0
M  V30 7 C 12.641186 -3.459137 0.000000 0
M  V30 8 C 13.141196 -2.593095 0.000000 0
M  V30 9 C 14.141196 -2.593095 0.000000 0
M  V30 10 N 17.374030 -2.593138 0.000000 0
M  V30 11 C 6.409203 -3.593203 0.000000 0
M  V30 12 C 5.543206 -3.093302 0.000000 0
M  V30 13 O -0.518742 -3.593390 0.000000 0
M  V30 14 O 4.677232 -3.593390 0.000000 0
M  V30 15 C 3.811227 -3.093290 0.000000 0
M  V30 16 O 3.811225 -2.093290 0.000000 0
M  V30 17 C 2.945231 -3.593390 0.000000 0
M  V30 18 C 2.945231 -4.593391 0.000000 0
M  V30 19 O 2.079227 -3.093290 0.000000 0
M  V30 20 C 1.213231 -3.593390 0.000000 0
M  V30 21 O 1.213233 -4.593391 0.000000 0
M  V30 22 C 0.347226 -3.093290 0.000000 0
M  V30 23 C 0.347226 -4.093315 0.000000 0
M  V30 24 C 7.275199 -2.093102 0.000000 0
M  V30 25 C 7.775099 -1.227106 0.000000 0
M  V30 26 O 7.275011 4.834842 0.000000 0
M  V30 27 O 7.275011 -0.361131 0.000000 0
M  V30 28 C 7.775111 0.504873 0.000000 0
M  V30 29 O 8.775111 0.504875 0.000000 0
M  V30 30 C 7.275011 1.370869 0.000000 0
M  V30 31 C 6.275011 1.370869 0.000000 0
M  V30 32 O 7.775111 2.236874 0.000000 0
M  V30 33 C 7.275011 3.102870 0.000000 0
M  V30 34 O 6.275011 3.102868 0.000000 0
M  V30 35 C 7.775111 3.968874 0.000000 0
M  V30 36 C 6.775086 3.968874 0.000000 0
M  V30 37 C 9.141158 -2.593095 0.000000 0
M  V30 38 C 8.275199 -3.093102 0.000000 0
M  V30 39 C 8.275199 -4.093104 0.000000 0
M  V30 40 C 9.141400 -4.593038 0.000000 0
M  V30 41 C 9.141200 -5.593039 0.000000 0
M  V30 42 C 8.275399 -6.093109 0.000000 0
M  V30 43 C 7.409197 -5.593175 0.000000 0
M  V30 44 C 7.409397 -4.593174 0.000000 0
M  V30 45 C 15.141196 -2.593095 0.000000 0
M  V30 46 C 16.007155 -2.093088 0.000000 0
M  V30 47 C 16.007155 -1.093086 0.000000 0
M  V30 48 C 15.140953 -0.593153 0.000000 0
M  V30 49 C 15.141153 0.406849 0.000000 0
M  V30 50 C 16.006955 0.906918 0.000000 0
M  V30 51 C 16.873157 0.406985 0.000000 0
M  V30 52 C 16.872957 -0.593017 0.000000 0
M  V30 53 C 17.374030 -1.422142 0.000000 0
M  V30 54 C 17.873930 -0.556146 0.000000 0
M  V30 55 O 17.373843 5.505802 0.000000 0
M  V30 56 O 17.373842 0.309829 0.000000 0
M  V30 57 C 17.873943 1.175833 0.000000 0
M  V30 58 O 18.873943 1.175835 0.000000 0
M  V30 59 C 17.373842 2.041829 0.000000 0
M  V30 60 C 16.373842 2.041829 0.000000 0
M  V30 61 O 17.873943 2.907834 0.000000 0
M  V30 62 C 17.373842 3.773830 0.000000 0
M  V30 63 O 16.373842 3.773828 0.000000 0
M  V30 64 C 17.873943 4.639834 0.000000 0
M  V30 65 C 16.873918 4.639834 0.000000 0
M  V30 66 C 18.239998 -2.093038 0.000000 0
M  V30 67 C 19.105994 -2.592938 0.000000 0
M  V30 68 O 25.167942 -2.092851 0.000000 0
M  V30 69 O 19.971969 -2.092851 0.000000 0
M  V30 70 C 20.837974 -2.592951 0.000000 0
M  V30 71 O 20.837976 -3.592951 0.000000 0
M  V30 72 C 21.703970 -2.092851 0.000000 0
M  V30 73 C 21.703970 -1.092850 0.000000 0
M  V30 74 O 22.569974 -2.592951 0.000000 0
M  V30 75 C 23.435970 -2.092851 0.000000 0
M  V30 76 O 23.435968 -1.092850 0.000000 0
M  V30 77 C 24.301975 -2.592951 0.000000 0
M  V30 78 C 24.301975 -1.592926 0.000000 0
M  V30 END ATOM
M  V30 BEGIN BOND
M  V30 1 1 2 3
M  V30 2 2 3 4
M  V30 3 1 4 5
M  V30 4 1 3 6
M  V30 5 2 6 7
M  V30 6 1 7 8
M  V30 7 1 8 9
M  V30 8 2 8 5
M  V30 9 1 11 12
M  V30 10 1 14 15
M  V30 11 2 15 16
M  V30 12 1 15 17
M  V30 13 1 17 18
M  V30 14 1 17 19
M  V30 15 1 19 20
M  V30 16 2 20 21
M  V30 17 1 20 22
M  V30 18 1 22 23
M  V30 19 1 12 14
M  V30 20 1 13 22
M  V30 21 1 1 11
M  V30 22 1 24 25
M  V30 23 1 27 28
M  V30 24 2 28 29
M  V30 25 1 28 30
M  V30 26 1 30 31
M  V30 27 1 30 32
M  V30 28 1 32 33
M  V30 29 2 33 34
M  V30 30 1 33 35
M  V30 31 1 35 36
M  V30 32 1 25 27
M  V30 33 1 26 35
M  V30 34 1 1 24
M  V30 35 1 37 38
M  V30 36 1 38 39
M  V30 37 2 39 40
M  V30 38 1 40 41
M  V30 39 2 41 42
M  V30 40 1 42 43
M  V30 41 2 43 44
M  V30 42 1 44 39
M  V30 43 1 1 38
M  V30 44 1 2 37
M  V30 45 1 45 46
M  V30 46 1 46 47
M  V30 47 2 47 48
M  V30 48 1 48 49
M  V30 49 2 49 50
M  V30 50 1 50 51
M  V30 51 2 51 52
M  V30 52 1 52 47
M  V30 53 1 9 45
M  V30 54 1 10 46
M  V30 55 1 53 54
M  V30 56 1 56 57
M  V30 57 2 57 58
M  V30 58 1 57 59
M  V30 59 1 59 60
M  V30 60 1 59 61
M  V30 61 1 61 62
M  V30 62 2 62 63
M  V30 63 1 62 64
M  V30 64 1 64 65
M  V30 65 1 54 56
M  V30 66 1 55 64
M  V30 67 1 10 53
M  V30 68 1 66 67
M  V30 69 1 69 70
M  V30 70 2 70 71
M  V30 71 1 70 72
M  V30 72 1 72 73
M  V30 73 1 72 74
M  V30 74 1 74 75
M  V30 75 2 75 76
M  V30 76 1 75 77
M  V30 77 1 77 78
M  V30 78 1 67 69
M  V30 79 1 68 77
M  V30 80 1 10 66
M  V30 END BOND
M  V30 BEGIN SGROUP
M  V30 1 SRU 0 ATOMS=(4 54 55 56 64) CBONDS=(2 65 66) -
M  V30 BRKXYZ=(9 18.1240 -0.1232 0 17.1238 -0.1232 0 0 0 0) BRKXYZ=(9 18.1240 -
M  V30 5.0728 0 17.1238 5.0728 0 0 0 0)
M  V30 2 SRU 0 ATOMS=(4 25 26 27 35) CBONDS=(2 32 33) -
M  V30 BRKXYZ=(9 8.0252 -0.7941 0 7.0250 -0.7941 0 0 0 0) BRKXYZ=(9 8.0252 4.4-
M  V30 019 0 7.0250 4.4019 0 0 0 0)
M  V30 3 SRU 0 ATOMS=(4 12 13 14 22) CBONDS=(2 19 20) -
M  V30 BRKXYZ=(9 5.1102 -2.8432 0 5.1102 -3.8434 0 0 0 0) BRKXYZ=(9 -0.0858 -2-
M  V30 .8432 0 -0.0858 -3.8434 0 0 0 0)
M  V30 4 SRU 0 ATOMS=(4 67 68 69 77) CBONDS=(2 78 79) -
M  V30 BRKXYZ=(9 19.5390 -2.8430 0 19.5390 -1.8428 0 0 0 0) BRKXYZ=(9 24.7350 -
M  V30 -2.8430 0 24.7350 -1.8428 0 0 0 0)
M  V30 5 SRU 0 ATOMS=(4 9 10 45 46) CBONDS=(2 53 54) -
M  V30 BRKXYZ=(9 14.6412 -3.0931 0 14.6412 -2.0931 0 0 0 0) BRKXYZ=(9 16.6906 -
M  V30 -2.8431 0 16.6906 -1.8431 0 0 0 0)
M  V30 6 SRU 0 ATOMS=(4 1 2 37 38) CBONDS=(2 43 44) -
M  V30 BRKXYZ=(9 9.6412 -2.0931 0 9.6412 -3.0931 0 0 0 0) BRKXYZ=(9 7.7752 -2.-
M  V30 5931 0 7.7752 -3.5931 0 0 0 0)
M  V30 END SGROUP
M  V30 END CTAB
M  END
>  <BIGSMILES_BRACKET_RECORDS_JSON>
{
  "records": [
    {
      "id": 0,
      "bracket_kind": "backbone",
      "pairing_id": "F9/fragments[0]",
      "group_id": "<1:3",
      "ru_midpoint": [
        17.623892568778118,
        2.4748313891646077
      ],
      "bond_midpoint": [
        17.623886402771227,
        -0.12315878222876409
      ],
      "orientation_vector": [
        1.0,
        0.0
      ],
      "half_bracket_size": 0.500100159950025,
      "bond": [
        53,
        55
      ],
      "fragment": "F9",
      "backbone": true,
      "suspended_anchor_atom": null,
      "suspended_reason": null,
      "source_label": "F9/fragments[0]",
      "marker_id": "0",
      "side": "left",
      "connection_group": "<1",
      "marker_type_index": 3
    },
    {
      "id": 1,
      "bracket_kind": "backbone",
      "pairing_id": "F9/fragments[0]",
      "group_id": ">1:4",
      "ru_midpoint": [
        17.623892568778118,
        2.4748313891646077
      ],
      "bond_midpoint": [
        17.623892648794104,
        5.072818045929436
      ],
      "orientation_vector": [
        1.0,
        0.0
      ],
      "half_bracket_size": 0.500100159950025,
      "bond": [
        54,
        63
      ],
      "fragment": "F9",
      "backbone": true,
      "suspended_anchor_atom": null,
      "suspended_reason": null,
      "source_label": "F9/fragments[0]",
      "marker_id": "11",
      "side": "right",
      "connection_group": ">1",
      "marker_type_index": 4
    },
    {
      "id": 2,
      "bracket_kind": "backbone",
      "pairing_id": "F8/fragments[0]",
      "group_id": "<1:3",
      "ru_midpoint": [
        7.5250610251144785,
        1.8038713526902885
      ],
      "bond_midpoint": [
        7.525054859107586,
        -0.7941188187030832
      ],
      "orientation_vector": [
        1.0,
        0.0
      ],
      "half_bracket_size": 0.500100159950025,
      "bond": [
        24,
        26
      ],
      "fragment": "F8",
      "backbone": true,
      "suspended_anchor_atom": null,
      "suspended_reason": null,
      "source_label": "F8/fragments[0]",
      "marker_id": "0",
      "side": "left",
      "connection_group": "<1",
      "marker_type_index": 3
    },
    {
      "id": 3,
      "bracket_kind": "backbone",
      "pairing_id": "F8/fragments[0]",
      "group_id": ">1:4",
      "ru_midpoint": [
        7.5250610251144785,
        1.8038713526902885
      ],
      "bond_midpoint": [
        7.525061105130465,
        4.401858009455117
      ],
      "orientation_vector": [
        1.0,
        0.0
      ],
      "half_bracket_size": 0.500100159950025,
      "bond": [
        25,
        34
      ],
      "fragment": "F8",
      "backbone": true,
      "suspended_anchor_atom": null,
      "suspended_reason": null,
      "source_label": "F8/fragments[0]",
      "marker_id": "11",
      "side": "right",
      "connection_group": ">1",
      "marker_type_index": 4
    },
    {
      "id": 4,
      "bracket_kind": "backbone",
      "pairing_id": "F7/fragments[0]",
      "group_id": "<1:3",
      "ru_midpoint": [
        2.512228844750538,
        -3.343340118479426
      ],
      "bond_midpoint": [
        5.110219016143909,
        -3.343346284486318
      ],
      "orientation_vector": [
        0.0,
        1.0
      ],
      "half_bracket_size": 0.500100159950025,
      "bond": [
        11,
        13
      ],
      "fragment": "F7",
      "backbone": true,
      "suspended_anchor_atom": null,
      "suspended_reason": null,
      "source_label": "F7/fragments[0]",
      "marker_id": "0",
      "side": "left",
      "connection_group": "<1",
      "marker_type_index": 3
    },
    {
      "id": 5,
      "bracket_kind": "backbone",
      "pairing_id": "F7/fragments[0]",
      "group_id": ">1:4",
      "ru_midpoint": [
        2.512228844750538,
        -3.343340118479426
      ],
      "bond_midpoint": [
        -0.08575781201428986,
        -3.343340038463438
      ],
      "orientation_vector": [
        0.0,
        1.0
      ],
      "half_bracket_size": 0.500100159950025,
      "bond": [
        12,
        21
      ],
      "fragment": "F7",
      "backbone": true,
      "suspended_anchor_atom": null,
      "suspended_reason": null,
      "source_label": "F7/fragments[0]",
      "marker_id": "11",
      "side": "right",
      "connection_group": ">1",
      "marker_type_index": 4
    },
    {
      "id": 6,
      "bracket_kind": "backbone",
      "pairing_id": "F10/fragments[0]",
      "group_id": "<1:3",
      "ru_midpoint": [
        22.136968304861245,
        -2.3429006799633276
      ],
      "bond_midpoint": [
        19.53898164682038,
        -2.3428945139564354
      ],
      "orientation_vector": [
        0.0,
        -1.0
      ],
      "half_bracket_size": 0.500100159950025,
      "bond": [
        66,
        68
      ],
      "fragment": "F10",
      "backbone": true,
      "suspended_anchor_atom": null,
      "suspended_reason": null,
      "source_label": "F10/fragments[0]",
      "marker_id": "0",
      "side": "left",
      "connection_group": "<1",
      "marker_type_index": 3
    },
    {
      "id": 7,
      "bracket_kind": "backbone",
      "pairing_id": "F10/fragments[0]",
      "group_id": ">1:4",
      "ru_midpoint": [
        22.136968304861245,
        -2.3429006799633276
      ],
      "bond_midpoint": [
        24.734958474978576,
        -2.342900759979315
      ],
      "orientation_vector": [
        0.0,
        -1.0
      ],
      "half_bracket_size": 0.500100159950025,
      "bond": [
        67,
        76
      ],
      "fragment": "F10",
      "backbone": true,
      "suspended_anchor_atom": null,
      "suspended_reason": null,
      "source_label": "F10/fragments[0]",
      "marker_id": "11",
      "side": "right",
      "connection_group": ">1",
      "marker_type_index": 4
    },
    {
      "id": 8,
      "bracket_kind": "backbone",
      "pairing_id": "F4/fragments[0]",
      "group_id": "$a:2",
      "ru_midpoint": [
        15.574175261986637,
        -2.3430917822196866
      ],
      "bond_midpoint": [
        14.641195706741549,
        -2.5930953116743027
      ],
      "orientation_vector": [
        0.0,
        -1.0
      ],
      "half_bracket_size": 0.5000070589092322,
      "bond": [
        8,
        44
      ],
      "fragment": "F4",
      "backbone": true,
      "suspended_anchor_atom": null,
      "suspended_reason": null,
      "source_label": "F4/fragments[0]",
      "marker_id": "0",
      "side": "left",
      "connection_group": "$a",
      "marker_type_index": 2
    },
    {
      "id": 9,
      "bracket_kind": "backbone",
      "pairing_id": "F4/fragments[0]",
      "group_id": "$a:2",
      "ru_midpoint": [
        15.574175261986637,
        -2.3430917822196866
      ],
      "bond_midpoint": [
        16.690592486977856,
        -2.3431133403121445
      ],
      "orientation_vector": [
        0.0,
        -1.0
      ],
      "half_bracket_size": 0.5000070589092322,
      "bond": [
        9,
        45
      ],
      "fragment": "F4",
      "backbone": true,
      "suspended_anchor_atom": null,
      "suspended_reason": null,
      "source_label": "F4/fragments[0]",
      "marker_id": "9",
      "side": "right",
      "connection_group": "$a",
      "marker_type_index": 2
    },
    {
      "id": 10,
      "bracket_kind": "backbone",
      "pairing_id": "F3/fragments[0]",
      "group_id": "$a:2",
      "ru_midpoint": [
        8.708178168305432,
        -2.8430988411289198
      ],
      "bond_midpoint": [
        9.64115772355052,
        -2.5930953116743036
      ],
      "orientation_vector": [
        0.0,
        1.0
      ],
      "half_bracket_size": 0.5000070589092322,
      "bond": [
        1,
        36
      ],
      "fragment": "F3",
      "backbone": true,
      "suspended_anchor_atom": null,
      "suspended_reason": null,
      "source_label": "F3/fragments[0]",
      "marker_id": "0",
      "side": "left",
      "connection_group": "$a",
      "marker_type_index": 2
    },
    {
      "id": 11,
      "bracket_kind": "backbone",
      "pairing_id": "F3/fragments[0]",
      "group_id": "$a:2",
      "ru_midpoint": [
        8.708178168305432,
        -2.8430988411289198
      ],
      "bond_midpoint": [
        7.775198613060343,
        -3.0931023705835354
      ],
      "orientation_vector": [
        0.0,
        1.0
      ],
      "half_bracket_size": 0.5000070589092322,
      "bond": [
        0,
        37
      ],
      "fragment": "F3",
      "backbone": true,
      "suspended_anchor_atom": null,
      "suspended_reason": null,
      "source_label": "F3/fragments[0]",
      "marker_id": "9",
      "side": "right",
      "connection_group": "$a",
      "marker_type_index": 2
    }
  ]
}
