
     RDKit          2D

  0  0  0  0  0  0  0  0  0  0999 V3000
M  V30 BEGIN CTAB
M  V30 COUNTS 71 75 4 0 0
M  V30 BEGIN ATOM
M  V30 1 O -8.371465 -0.779241 0.000000 0
M  V30 2 O -2.308794 -1.279195 0.000000 0
M  V30 3 C -1.442794 -0.779195 0.000000 0
M  V30 4 C -1.442794 0.220805 0.000000 0
M  V30 5 C -2.308937 0.721002 0.000000 0
M  V30 6 C -2.308563 1.721054 0.000000 0
M  V30 7 C -1.442668 2.221034 0.000000 0
M  V30 8 C -0.576525 1.720836 0.000000 0
M  V30 9 C -0.576799 0.720958 0.000000 0
M  V30 10 C 2.208850 -1.279195 0.000000 0
M  V30 11 C 2.208850 -0.279195 0.000000 0
M  V30 12 C 1.342571 0.220766 0.000000 0
M  V30 13 C 1.342571 1.220644 0.000000 0
M  V30 14 C 2.208430 1.721034 0.000000 0
M  V30 15 C 3.074709 1.221073 0.000000 0
M  V30 16 C 3.074609 0.221022 0.000000 0
M  V30 17 O 3.074850 -0.779195 0.000000 0
M  V30 18 O 9.137116 -1.279250 0.000000 0
M  V30 19 C -7.505398 -1.279168 0.000000 0
M  V30 20 C -6.639215 -0.779267 0.000000 0
M  V30 21 C -5.773195 -1.279168 0.000000 0
M  V30 22 C -4.907096 -0.779267 0.000000 0
M  V30 23 C -4.040961 -1.279168 0.000000 0
M  V30 24 C -3.174862 -0.779267 0.000000 0
M  V30 25 O -3.174842 0.220735 0.000000 0
M  V30 26 C -1.442794 -1.937789 0.000000 0
M  V30 27 C -0.576785 -2.437780 0.000000 0
M  V30 28 C -0.576785 -3.437761 0.000000 0
M  V30 29 C -2.308804 -2.437780 0.000000 0
M  V30 30 C -2.308804 -3.437761 0.000000 0
M  V30 31 C -1.442794 -3.937751 0.000000 0
M  V30 32 O -1.442794 -4.937751 0.000000 0
M  V30 33 C -1.942795 -5.803698 0.000000 0
M  V30 34 O -2.942795 -5.803671 0.000000 0
M  V30 35 C -1.442794 -6.669752 0.000000 0
M  V30 36 C -0.442794 -6.669752 0.000000 0
M  V30 37 Br -1.942863 -9.267817 0.000000 0
M  V30 38 C -1.942829 -7.535757 0.000000 0
M  V30 39 C -1.442828 -8.401811 0.000000 0
M  V30 40 C -2.442853 -8.401811 0.000000 0
M  V30 41 C -0.442796 -8.401811 0.000000 0
M  V30 42 O 0.057295 -7.535838 0.000000 0
M  V30 43 O 0.057044 -9.267957 0.000000 0
M  V30 44 C 1.057076 -9.267957 0.000000 0
M  V30 45 C 2.208850 -2.279195 0.000000 0
M  V30 46 C 3.074859 -2.779186 0.000000 0
M  V30 47 C 3.074859 -3.779167 0.000000 0
M  V30 48 C 1.342841 -2.779186 0.000000 0
M  V30 49 C 1.342841 -3.779167 0.000000 0
M  V30 50 C 2.208850 -4.279158 0.000000 0
M  V30 51 O 2.208850 -5.279158 0.000000 0
M  V30 52 C 1.708850 -6.145104 0.000000 0
M  V30 53 O 0.708850 -6.145077 0.000000 0
M  V30 54 C 2.208850 -7.011158 0.000000 0
M  V30 55 C 3.208850 -7.011158 0.000000 0
M  V30 56 Br 1.708801 -9.609135 0.000000 0
M  V30 57 C 1.708844 -7.877180 0.000000 0
M  V30 58 C 2.208851 -8.743139 0.000000 0
M  V30 59 C 3.208853 -8.743139 0.000000 0
M  V30 60 C 3.708787 -7.876937 0.000000 0
M  V30 61 C 4.708788 -7.877137 0.000000 0
M  V30 62 C 5.208858 -8.742939 0.000000 0
M  V30 63 C 4.708924 -9.609141 0.000000 0
M  V30 64 C 3.708923 -9.608941 0.000000 0
M  V30 65 C 3.940859 -1.279223 0.000000 0
M  V30 66 O 3.940840 -2.279225 0.000000 0
M  V30 67 C 4.806901 -0.779222 0.000000 0
M  V30 68 C 5.672978 -1.279223 0.000000 0
M  V30 69 C 6.539019 -0.779222 0.000000 0
M  V30 70 C 7.404982 -1.279223 0.000000 0
M  V30 71 C 8.271107 -0.779222 0.000000 0
M  V30 END ATOM
M  V30 BEGIN BOND
M  V30 1 1 2 3
M  V30 2 1 3 4
M  V30 3 2 4 5
M  V30 4 1 5 6
M  V30 5 2 6 7
M  V30 6 1 7 8
M  V30 7 2 8 9
M  V30 8 1 3 10
M  V30 9 1 10 11
M  V30 10 2 11 12
M  V30 11 1 12 13
M  V30 12 2 13 14
M  V30 13 1 14 15
M  V30 14 2 15 16
M  V30 15 1 10 17
M  V30 16 1 9 4
M  V30 17 1 16 11
M  V30 18 1 19 20
M  V30 19 1 20 21
M  V30 20 1 21 22
M  V30 21 1 22 23
M  V30 22 1 23 24
M  V30 23 2 24 25
M  V30 24 1 1 19
M  V30 25 1 2 24
M  V30 26 2 26 27
M  V30 27 1 27 28
M  V30 28 1 26 29
M  V30 29 2 29 30
M  V30 30 1 30 31
M  V30 31 1 31 32
M  V30 32 1 32 33
M  V30 33 2 33 34
M  V30 34 1 33 35
M  V30 35 1 35 36
M  V30 36 2 31 28
M  V30 37 1 38 39
M  V30 38 1 39 40
M  V30 39 1 39 41
M  V30 40 2 41 42
M  V30 41 1 41 43
M  V30 42 1 43 44
M  V30 43 1 35 38
M  V30 44 1 37 39
M  V30 45 1 3 26
M  V30 46 2 45 46
M  V30 47 1 46 47
M  V30 48 1 45 48
M  V30 49 2 48 49
M  V30 50 1 49 50
M  V30 51 1 50 51
M  V30 52 1 51 52
M  V30 53 2 52 53
M  V30 54 1 52 54
M  V30 55 1 54 55
M  V30 56 2 50 47
M  V30 57 1 57 58
M  V30 58 1 58 59
M  V30 59 2 59 60
M  V30 60 1 60 61
M  V30 61 2 61 62
M  V30 62 1 62 63
M  V30 63 2 63 64
M  V30 64 1 64 59
M  V30 65 1 54 57
M  V30 66 1 56 58
M  V30 67 1 10 45
M  V30 68 2 65 66
M  V30 69 1 65 67
M  V30 70 1 67 68
M  V30 71 1 68 69
M  V30 72 1 69 70
M  V30 73 1 70 71
M  V30 74 1 17 65
M  V30 75 1 18 71
M  V30 END BOND
M  V30 BEGIN SGROUP
M  V30 1 SRU 0 ATOMS=(4 54 56 57 58) CBONDS=(2 65 66) -
M  V30 BRKXYZ=(9 1.4588 -7.4442 0 2.4589 -7.4442 0 0 0 0) BRKXYZ=(9 1.4588 -9.-
M  V30 1761 0 2.4588 -9.1761 0 0 0 0)
M  V30 2 SRU 0 ATOMS=(4 35 37 38 39) CBONDS=(2 43 44) -
M  V30 BRKXYZ=(9 -2.1928 -7.1028 0 -1.1928 -7.1028 0 0 0 0) BRKXYZ=(9 -2.1928 -
M  V30 -8.8348 0 -1.1928 -8.8348 0 0 0 0)
M  V30 3 SRU 0 ATOMS=(4 17 18 65 71) CBONDS=(2 74 75) -
M  V30 BRKXYZ=(9 3.5079 -0.5292 0 3.5079 -1.5292 0 0 0 0) BRKXYZ=(9 8.7041 -0.-
M  V30 5292 0 8.7041 -1.5292 0 0 0 0)
M  V30 4 SRU 0 ATOMS=(4 1 2 19 24) CBONDS=(2 24 25) -
M  V30 BRKXYZ=(9 -7.9384 -1.5291 0 -7.9384 -0.5293 0 0 0 0) BRKXYZ=(9 -2.7418 -
M  V30 -1.5291 0 -2.7418 -0.5293 0 0 0 0)
M  V30 END SGROUP
M  V30 END CTAB
M  END
>  <BIGSMILES_BRACKET_RECORDS_JSON>
{
  "records": [
    {
      "id": 0,
      "bracket_kind": "backbone",
      "pairing_id": "F6/fragments[0]",
      "group_id": "$a:2",
      "ru_midpoint": [
        1.9588475830287715,
        -8.310159465763745
      ],
      "bond_midpoint": [
        1.9588470830232136,
        -7.444168957693795
      ],
      "orientation_vector": [
        -1.0,
        0.0
      ],
      "half_bracket_size": 0.5000070589092322,
      "bond": [
        53,
        56
      ],
      "fragment": "F6",
      "backbone": true,
      "suspended_anchor_atom": null,
      "suspended_reason": null,
      "source_label": "F6/fragments[0]",
      "marker_id": "0",
      "side": "left",
      "connection_group": "$a",
      "marker_type_index": 2
    },
    {
      "id": 1,
      "bracket_kind": "backbone",
      "pairing_id": "F6/fragments[0]",
      "group_id": "$a:2",
      "ru_midpoint": [
        1.9588475830287715,
        -8.310159465763745
      ],
      "bond_midpoint": [
        1.9588260249363127,
        -9.17613723762996
      ],
      "orientation_vector": [
        -1.0,
        0.0
      ],
      "half_bracket_size": 0.5000070589092322,
      "bond": [
        55,
        57
      ],
      "fragment": "F6",
      "backbone": true,
      "suspended_anchor_atom": null,
      "suspended_reason": null,
      "source_label": "F6/fragments[0]",
      "marker_id": "9",
      "side": "right",
      "connection_group": "$a",
      "marker_type_index": 2
    },
    {
      "id": 2,
      "bracket_kind": "backbone",
      "pairing_id": "F5/fragments[0]",
      "group_id": "$a:2",
      "ru_midpoint": [
        -1.6928285708357231,
        -7.968784288450173
      ],
      "bond_midpoint": [
        -1.6928115340890237,
        -7.102754574780558
      ],
      "orientation_vector": [
        -1.0,
        0.0
      ],
      "half_bracket_size": 0.500000157129195,
      "bond": [
        34,
        37
      ],
      "fragment": "F5",
      "backbone": true,
      "suspended_anchor_atom": null,
      "suspended_reason": null,
      "source_label": "F5/fragments[0]",
      "marker_id": "0",
      "side": "left",
      "connection_group": "$a",
      "marker_type_index": 2
    },
    {
      "id": 3,
      "bracket_kind": "backbone",
      "pairing_id": "F5/fragments[0]",
      "group_id": "$a:2",
      "ru_midpoint": [
        -1.6928285708357231,
        -7.968784288450173
      ],
      "bond_midpoint": [
        -1.6928456075824228,
        -8.834814002119789
      ],
      "orientation_vector": [
        -1.0,
        0.0
      ],
      "half_bracket_size": 0.500000157129195,
      "bond": [
        36,
        38
      ],
      "fragment": "F5",
      "backbone": true,
      "suspended_anchor_atom": null,
      "suspended_reason": null,
      "source_label": "F5/fragments[0]",
      "marker_id": "8",
      "side": "right",
      "connection_group": "$a",
      "marker_type_index": 2
    },
    {
      "id": 4,
      "bracket_kind": "backbone",
      "pairing_id": "F4/fragments[0]",
      "group_id": "<1:3",
      "ru_midpoint": [
        6.105976594560916,
        -1.0292226613855116
      ],
      "bond_midpoint": [
        3.5078547482818854,
        -1.029209190269868
      ],
      "orientation_vector": [
        0.0,
        1.0
      ],
      "half_bracket_size": 0.5000009984575864,
      "bond": [
        16,
        64
      ],
      "fragment": "F4",
      "backbone": true,
      "suspended_anchor_atom": null,
      "suspended_reason": null,
      "source_label": "F4/fragments[0]",
      "marker_id": "0",
      "side": "left",
      "connection_group": "<1",
      "marker_type_index": 3
    },
    {
      "id": 5,
      "bracket_kind": "backbone",
      "pairing_id": "F4/fragments[0]",
      "group_id": ">1:4",
      "ru_midpoint": [
        6.105976594560916,
        -1.0292226613855116
      ],
      "bond_midpoint": [
        8.704111630324098,
        -1.0292361325011554
      ],
      "orientation_vector": [
        0.0,
        1.0
      ],
      "half_bracket_size": 0.5000009984575864,
      "bond": [
        17,
        70
      ],
      "fragment": "F4",
      "backbone": true,
      "suspended_anchor_atom": null,
      "suspended_reason": null,
      "source_label": "F4/fragments[0]",
      "marker_id": "8",
      "side": "right",
      "connection_group": ">1",
      "marker_type_index": 4
    },
    {
      "id": 6,
      "bracket_kind": "backbone",
      "pairing_id": "F1/fragments[0]",
      "group_id": ">1:4",
      "ru_midpoint": [
        -5.340121146268803,
        -1.0292178813109434
      ],
      "bond_midpoint": [
        -7.938431899131517,
        -1.0292044128947682
      ],
      "orientation_vector": [
        0.0,
        -1.0
      ],
      "half_bracket_size": 0.499900803564275,
      "bond": [
        0,
        18
      ],
      "fragment": "F1",
      "backbone": true,
      "suspended_anchor_atom": null,
      "suspended_reason": null,
      "source_label": "F1/fragments[0]",
      "marker_id": "0",
      "side": "left",
      "connection_group": ">1",
      "marker_type_index": 4
    },
    {
      "id": 7,
      "bracket_kind": "backbone",
      "pairing_id": "F1/fragments[0]",
      "group_id": "<1:3",
      "ru_midpoint": [
        -5.340121146268803,
        -1.0292178813109434
      ],
      "bond_midpoint": [
        -2.741827978211033,
        -1.0292313497271186
      ],
      "orientation_vector": [
        0.0,
        -1.0
      ],
      "half_bracket_size": 0.499900803564275,
      "bond": [
        1,
        23
      ],
      "fragment": "F1",
      "backbone": true,
      "suspended_anchor_atom": null,
      "suspended_reason": null,
      "source_label": "F1/fragments[0]",
      "marker_id": "8",
      "side": "right",
      "connection_group": "<1",
      "marker_type_index": 3
    }
  ]
}
