
     RDKit          2D

  0  0  0  0  0  0  0  0  0  0999 V3000
M  V30 BEGIN CTAB
M  V30 COUNTS 80 84 5 0 0
M  V30 BEGIN ATOM
M  V30 1 O -0.967566 -2.325518 0.000000 0
M  V30 2 O 5.095105 -1.825563 0.000000 0
M  V30 3 C 5.961180 -2.325465 0.000000 0
M  V30 4 C 5.961180 -1.325662 0.000000 0
M  V30 5 C 5.095177 -0.825634 0.000000 0
M  V30 6 C 5.095178 0.174370 0.000000 0
M  V30 7 C 5.961182 0.674546 0.000000 0
M  V30 8 C 6.827185 0.174519 0.000000 0
M  V30 9 C 6.827184 -0.825485 0.000000 0
M  V30 10 C 10.489499 -1.825531 0.000000 0
M  V30 11 C 10.489499 -2.825526 0.000000 0
M  V30 12 C 9.623313 -3.325389 0.000000 0
M  V30 13 C 9.623313 -4.325383 0.000000 0
M  V30 14 C 10.489325 -4.825415 0.000000 0
M  V30 15 C 11.355510 -4.325551 0.000000 0
M  V30 16 C 11.355610 -3.325384 0.000000 0
M  V30 17 O 11.355574 -2.325433 0.000000 0
M  V30 18 O 17.417840 -1.825378 0.000000 0
M  V30 19 C -0.101499 -1.825590 0.000000 0
M  V30 20 C 0.764684 -2.325491 0.000000 0
M  V30 21 C 1.630704 -1.825590 0.000000 0
M  V30 22 C 2.496803 -2.325491 0.000000 0
M  V30 23 C 3.362939 -1.825590 0.000000 0
M  V30 24 C 4.229038 -2.325491 0.000000 0
M  V30 25 O 4.229057 -3.325493 0.000000 0
M  V30 26 C 5.961180 -3.325469 0.000000 0
M  V30 27 C 5.095171 -3.825460 0.000000 0
M  V30 28 C 5.095171 -4.825441 0.000000 0
M  V30 29 C 6.827189 -3.825460 0.000000 0
M  V30 30 C 6.827189 -4.825441 0.000000 0
M  V30 31 C 5.961180 -5.325432 0.000000 0
M  V30 32 O 5.961180 -6.325432 0.000000 0
M  V30 33 C 6.461180 -7.191378 0.000000 0
M  V30 34 O 7.461181 -7.191352 0.000000 0
M  V30 35 C 5.961180 -8.057432 0.000000 0
M  V30 36 C 4.961180 -8.057432 0.000000 0
M  V30 37 Br 6.461248 -10.655497 0.000000 0
M  V30 38 C 6.461214 -8.923438 0.000000 0
M  V30 39 C 5.961214 -9.789492 0.000000 0
M  V30 40 C 6.961239 -9.789492 0.000000 0
M  V30 41 C 4.961182 -9.789492 0.000000 0
M  V30 42 O 4.461091 -8.923519 0.000000 0
M  V30 43 O 4.461342 -10.655638 0.000000 0
M  V30 44 C 3.461310 -10.655638 0.000000 0
M  V30 45 C 7.382810 -1.825531 0.000000 0
M  V30 46 C 8.248806 -2.325431 0.000000 0
M  V30 47 C 8.248806 -3.325363 0.000000 0
M  V30 48 O 9.114866 -3.825305 0.000000 0
M  V30 49 O 7.382920 -3.825454 0.000000 0
M  V30 50 C 7.382920 -4.825385 0.000000 0
M  V30 51 C 8.382952 -4.825212 0.000000 0
M  V30 52 C 7.883010 -5.691272 0.000000 0
M  V30 53 C 6.516860 -5.325376 0.000000 0
M  V30 54 C 10.489499 -0.825527 0.000000 0
M  V30 55 C 11.355508 -0.325537 0.000000 0
M  V30 56 C 11.355508 0.674444 0.000000 0
M  V30 57 C 9.623490 -0.325537 0.000000 0
M  V30 58 C 9.623490 0.674444 0.000000 0
M  V30 59 C 10.489499 1.174435 0.000000 0
M  V30 60 O 10.489499 2.174435 0.000000 0
M  V30 61 C 9.989498 3.040382 0.000000 0
M  V30 62 O 8.989498 3.040355 0.000000 0
M  V30 63 C 10.489499 3.906435 0.000000 0
M  V30 64 C 11.489499 3.906435 0.000000 0
M  V30 65 Br 9.989449 6.504413 0.000000 0
M  V30 66 C 9.989493 4.772457 0.000000 0
M  V30 67 C 10.489500 5.638416 0.000000 0
M  V30 68 C 11.489502 5.638416 0.000000 0
M  V30 69 C 11.989435 4.772214 0.000000 0
M  V30 70 C 12.989437 4.772414 0.000000 0
M  V30 71 C 13.489506 5.638216 0.000000 0
M  V30 72 C 12.989573 6.504418 0.000000 0
M  V30 73 C 11.989571 6.504218 0.000000 0
M  V30 74 C 12.221583 -1.825405 0.000000 0
M  V30 75 O 12.221564 -0.825403 0.000000 0
M  V30 76 C 13.087624 -2.325406 0.000000 0
M  V30 77 C 13.953702 -1.825405 0.000000 0
M  V30 78 C 14.819743 -2.325406 0.000000 0
M  V30 79 C 15.685706 -1.825405 0.000000 0
M  V30 80 C 16.551831 -2.325406 0.000000 0
M  V30 END ATOM
M  V30 BEGIN BOND
M  V30 1 1 2 3
M  V30 2 1 3 4
M  V30 3 2 4 5
M  V30 4 1 5 6
M  V30 5 2 6 7
M  V30 6 1 7 8
M  V30 7 2 8 9
M  V30 8 1 10 11
M  V30 9 2 11 12
M  V30 10 1 12 13
M  V30 11 2 13 14
M  V30 12 1 14 15
M  V30 13 2 15 16
M  V30 14 1 10 17
M  V30 15 1 9 4
M  V30 16 1 16 11
M  V30 17 1 19 20
M  V30 18 1 20 21
M  V30 19 1 21 22
M  V30 20 1 22 23
M  V30 21 1 23 24
M  V30 22 2 24 25
M  V30 23 1 1 19
M  V30 24 1 2 24
M  V30 25 2 26 27
M  V30 26 1 27 28
M  V30 27 1 26 29
M  V30 28 2 29 30
M  V30 29 1 30 31
M  V30 30 1 31 32
M  V30 31 1 32 33
M  V30 32 2 33 34
M  V30 33 1 33 35
M  V30 34 1 35 36
M  V30 35 2 31 28
M  V30 36 1 38 39
M  V30 37 1 39 40
M  V30 38 1 39 41
M  V30 39 2 41 42
M  V30 40 1 41 43
M  V30 41 1 43 44
M  V30 42 1 35 38
M  V30 43 1 37 39
M  V30 44 1 3 26
M  V30 45 1 45 46
M  V30 46 1 46 47
M  V30 47 2 47 48
M  V30 48 1 47 49
M  V30 49 1 49 50
M  V30 50 1 50 51
M  V30 51 1 50 52
M  V30 52 1 50 53
M  V30 53 1 3 45
M  V30 54 1 10 46
M  V30 55 2 54 55
M  V30 56 1 55 56
M  V30 57 1 54 57
M  V30 58 2 57 58
M  V30 59 1 58 59
M  V30 60 1 59 60
M  V30 61 1 60 61
M  V30 62 2 61 62
M  V30 63 1 61 63
M  V30 64 1 63 64
M  V30 65 2 59 56
M  V30 66 1 66 67
M  V30 67 1 67 68
M  V30 68 2 68 69
M  V30 69 1 69 70
M  V30 70 2 70 71
M  V30 71 1 71 72
M  V30 72 2 72 73
M  V30 73 1 73 68
M  V30 74 1 63 66
M  V30 75 1 65 67
M  V30 76 1 10 54
M  V30 77 2 74 75
M  V30 78 1 74 76
M  V30 79 1 76 77
M  V30 80 1 77 78
M  V30 81 1 78 79
M  V30 82 1 79 80
M  V30 83 1 17 74
M  V30 84 1 18 80
M  V30 END BOND
M  V30 BEGIN SGROUP
M  V30 1 SRU 0 ATOMS=(4 63 65 66 67) CBONDS=(2 74 75) -
M  V30 BRKXYZ=(9 9.7395 4.3394 0 10.7395 4.3394 0 0 0 0) BRKXYZ=(9 9.7395 6.07-
M  V30 14 0 10.7395 6.0714 0 0 0 0)
M  V30 2 SRU 0 ATOMS=(4 35 37 38 39) CBONDS=(2 42 43) -
M  V30 BRKXYZ=(9 6.7112 -8.4904 0 5.7112 -8.4904 0 0 0 0) BRKXYZ=(9 6.7112 -10-
M  V30 .2225 0 5.7112 -10.2225 0 0 0 0)
M  V30 3 SRU 0 ATOMS=(4 17 18 74 80) CBONDS=(2 83 84) -
M  V30 BRKXYZ=(9 11.7886 -2.5754 0 11.7886 -1.5754 0 0 0 0) BRKXYZ=(9 16.9848 -
M  V30 -2.5754 0 16.9848 -1.5754 0 0 0 0)
M  V30 4 SRU 0 ATOMS=(4 3 10 45 46) CBONDS=(2 53 54) -
M  V30 BRKXYZ=(9 6.6720 -1.5756 0 6.6720 -2.5754 0 0 0 0) BRKXYZ=(9 9.3692 -1.-
M  V30 5756 0 9.3692 -2.5754 0 0 0 0)
M  V30 5 SRU 0 ATOMS=(4 1 2 19 24) CBONDS=(2 23 24) -
M  V30 BRKXYZ=(9 -0.5345 -1.5757 0 -0.5345 -2.5755 0 0 0 0) BRKXYZ=(9 4.6621 --
M  V30 1.5756 0 4.6621 -2.5754 0 0 0 0)
M  V30 END SGROUP
M  V30 END CTAB
M  END
>  <BIGSMILES_BRACKET_RECORDS_JSON>
{
  "records": [
    {
      "id": 0,
      "bracket_kind": "backbone",
      "pairing_id": "F7/fragments[0]",
      "group_id": "$a:2",
      "ru_midpoint": [
        10.23949611490941,
        5.205411324304736
      ],
      "bond_midpoint": [
        10.239495614903852,
        4.339446284705074
      ],
      "orientation_vector": [
        -1.0,
        0.0
      ],
      "half_bracket_size": 0.5000070589092322,
      "bond": [
        62,
        65
      ],
      "fragment": "F7",
      "backbone": true,
      "suspended_anchor_atom": null,
      "suspended_reason": null,
      "source_label": "F7/fragments[0]",
      "marker_id": "0",
      "side": "left",
      "connection_group": "$a",
      "marker_type_index": 2
    },
    {
      "id": 1,
      "bracket_kind": "backbone",
      "pairing_id": "F7/fragments[0]",
      "group_id": "$a:2",
      "ru_midpoint": [
        10.23949611490941,
        5.205411324304736
      ],
      "bond_midpoint": [
        10.239474556816951,
        6.071414564641241
      ],
      "orientation_vector": [
        -1.0,
        0.0
      ],
      "half_bracket_size": 0.5000070589092322,
      "bond": [
        64,
        66
      ],
      "fragment": "F7",
      "backbone": true,
      "suspended_anchor_atom": null,
      "suspended_reason": null,
      "source_label": "F7/fragments[0]",
      "marker_id": "9",
      "side": "right",
      "connection_group": "$a",
      "marker_type_index": 2
    },
    {
      "id": 2,
      "bracket_kind": "backbone",
      "pairing_id": "F6/fragments[0]",
      "group_id": "$a:2",
      "ru_midpoint": [
        6.21121430268553,
        -9.356464678298948
      ],
      "bond_midpoint": [
        6.211197265938832,
        -8.490434964629335
      ],
      "orientation_vector": [
        1.0,
        0.0
      ],
      "half_bracket_size": 0.500000157129195,
      "bond": [
        34,
        37
      ],
      "fragment": "F6",
      "backbone": true,
      "suspended_anchor_atom": null,
      "suspended_reason": null,
      "source_label": "F6/fragments[0]",
      "marker_id": "0",
      "side": "left",
      "connection_group": "$a",
      "marker_type_index": 2
    },
    {
      "id": 3,
      "bracket_kind": "backbone",
      "pairing_id": "F6/fragments[0]",
      "group_id": "$a:2",
      "ru_midpoint": [
        6.21121430268553,
        -9.356464678298948
      ],
      "bond_midpoint": [
        6.21123133943223,
        -10.222494391968565
      ],
      "orientation_vector": [
        1.0,
        0.0
      ],
      "half_bracket_size": 0.500000157129195,
      "bond": [
        36,
        38
      ],
      "fragment": "F6",
      "backbone": true,
      "suspended_anchor_atom": null,
      "suspended_reason": null,
      "source_label": "F6/fragments[0]",
      "marker_id": "8",
      "side": "right",
      "connection_group": "$a",
      "marker_type_index": 2
    },
    {
      "id": 4,
      "bracket_kind": "backbone",
      "pairing_id": "F5/fragments[0]",
      "group_id": "<1:3",
      "ru_midpoint": [
        14.386700499524125,
        -2.0754058901232755
      ],
      "bond_midpoint": [
        11.788578653245093,
        -2.075419361238919
      ],
      "orientation_vector": [
        0.0,
        -1.0
      ],
      "half_bracket_size": 0.5000009984575864,
      "bond": [
        16,
        73
      ],
      "fragment": "F5",
      "backbone": true,
      "suspended_anchor_atom": null,
      "suspended_reason": null,
      "source_label": "F5/fragments[0]",
      "marker_id": "0",
      "side": "left",
      "connection_group": "<1",
      "marker_type_index": 3
    },
    {
      "id": 5,
      "bracket_kind": "backbone",
      "pairing_id": "F5/fragments[0]",
      "group_id": ">1:4",
      "ru_midpoint": [
        14.386700499524125,
        -2.0754058901232755
      ],
      "bond_midpoint": [
        16.984835535287303,
        -2.075392419007632
      ],
      "orientation_vector": [
        0.0,
        -1.0
      ],
      "half_bracket_size": 0.5000009984575864,
      "bond": [
        17,
        79
      ],
      "fragment": "F5",
      "backbone": true,
      "suspended_anchor_atom": null,
      "suspended_reason": null,
      "source_label": "F5/fragments[0]",
      "marker_id": "8",
      "side": "right",
      "connection_group": ">1",
      "marker_type_index": 4
    },
    {
      "id": 6,
      "bracket_kind": "backbone",
      "pairing_id": "F3/fragments[0]",
      "group_id": "$a:2",
      "ru_midpoint": [
        7.815808034917019,
        -2.0754812930953137
      ],
      "bond_midpoint": [
        6.671995041097595,
        -2.0754983264347624
      ],
      "orientation_vector": [
        0.0,
        1.0
      ],
      "half_bracket_size": 0.4999001600153622,
      "bond": [
        2,
        44
      ],
      "fragment": "F3",
      "backbone": true,
      "suspended_anchor_atom": null,
      "suspended_reason": null,
      "source_label": "F3/fragments[0]",
      "marker_id": "0",
      "side": "left",
      "connection_group": "$a",
      "marker_type_index": 2
    },
    {
      "id": 7,
      "bracket_kind": "backbone",
      "pairing_id": "F3/fragments[0]",
      "group_id": "$a:2",
      "ru_midpoint": [
        7.815808034917019,
        -2.0754812930953137
      ],
      "bond_midpoint": [
        9.36915239130965,
        -2.0754813730793007
      ],
      "orientation_vector": [
        0.0,
        1.0
      ],
      "half_bracket_size": 0.4999001600153622,
      "bond": [
        9,
        45
      ],
      "fragment": "F3",
      "backbone": true,
      "suspended_anchor_atom": null,
      "suspended_reason": null,
      "source_label": "F3/fragments[0]",
      "marker_id": "10",
      "side": "right",
      "connection_group": "$a",
      "marker_type_index": 2
    },
    {
      "id": 8,
      "bracket_kind": "backbone",
      "pairing_id": "F1/fragments[0]",
      "group_id": ">1:4",
      "ru_midpoint": [
        2.063778050053888,
        -2.075540819868633
      ],
      "bond_midpoint": [
        -0.5345327028088274,
        -2.0755542882848084
      ],
      "orientation_vector": [
        0.0,
        1.0
      ],
      "half_bracket_size": 0.499900803564275,
      "bond": [
        0,
        18
      ],
      "fragment": "F1",
      "backbone": true,
      "suspended_anchor_atom": null,
      "suspended_reason": null,
      "source_label": "F1/fragments[0]",
      "marker_id": "0",
      "side": "left",
      "connection_group": ">1",
      "marker_type_index": 4
    },
    {
      "id": 9,
      "bracket_kind": "backbone",
      "pairing_id": "F1/fragments[0]",
      "group_id": "<1:3",
      "ru_midpoint": [
        2.063778050053888,
        -2.075540819868633
      ],
      "bond_midpoint": [
        4.662071218111658,
        -2.075527351452458
      ],
      "orientation_vector": [
        0.0,
        1.0
      ],
      "half_bracket_size": 0.499900803564275,
      "bond": [
        1,
        23
      ],
      "fragment": "F1",
      "backbone": true,
      "suspended_anchor_atom": null,
      "suspended_reason": null,
      "source_label": "F1/fragments[0]",
      "marker_id": "8",
      "side": "right",
      "connection_group": "<1",
      "marker_type_index": 3
    }
  ]
}
