
     RDKit          2D

  0  0  0  0  0  0  0  0  0  0999 V3000
M  V30 BEGIN CTAB
M  V30 COUNTS 30 31 1 0 0
M  V30 BEGIN ATOM
M  V30 1 C -6.876615 -0.014996 0.000000 0
M  V30 2 C -6.010610 -0.514897 0.000000 0
M  V30 3 C -5.144614 -0.014996 0.000000 0
M  V30 4 C -4.278610 -0.514897 0.000000 0
M  V30 5 C -1.402703 -0.014847 0.000000 0
M  V30 6 C -0.536591 -0.514748 0.000000 0
M  V30 7 C -0.536591 -1.514748 0.000000 0
M  V30 8 C 0.329409 -2.014655 0.000000 0
M  V30 9 C 0.329409 -3.014656 0.000000 0
M  V30 10 C -0.536591 -3.514549 0.000000 0
M  V30 11 C -1.402792 -3.014641 0.000000 0
M  V30 12 C -1.402792 -2.014641 0.000000 0
M  V30 13 C 0.329529 -0.014847 0.000000 0
M  V30 14 C 1.195640 -0.514748 0.000000 0
M  V30 15 C 2.061760 -0.014847 0.000000 0
M  V30 16 O 2.927872 -0.514748 0.000000 0
M  V30 17 C 3.793992 -0.014847 0.000000 0
M  V30 18 C 3.793992 -1.014848 0.000000 0
M  V30 19 O 4.660103 -0.514748 0.000000 0
M  V30 20 C 5.526223 -0.014847 0.000000 0
M  V30 21 C 6.392335 -0.514748 0.000000 0
M  V30 22 O 1.195640 -1.514748 0.000000 0
M  V30 23 C -3.412588 -0.014891 0.000000 0
M  V30 24 C -2.546629 -0.514898 0.000000 0
M  V30 25 C -2.546629 -1.514900 0.000000 0
M  V30 26 C -3.412831 -2.014833 0.000000 0
M  V30 27 C -3.412631 -3.014835 0.000000 0
M  V30 28 C -2.546829 -3.514904 0.000000 0
M  V30 29 C -1.680627 -3.014971 0.000000 0
M  V30 30 C -1.680827 -2.014969 0.000000 0
M  V30 END ATOM
M  V30 BEGIN BOND
M  V30 1 1 1 2
M  V30 2 1 2 3
M  V30 3 1 3 4
M  V30 4 1 5 6
M  V30 5 1 6 7
M  V30 6 2 7 8
M  V30 7 1 8 9
M  V30 8 2 9 10
M  V30 9 1 10 11
M  V30 10 2 11 12
M  V30 11 1 6 13
M  V30 12 1 13 14
M  V30 13 1 14 15
M  V30 14 1 15 16
M  V30 15 1 16 17
M  V30 16 1 17 18
M  V30 17 1 17 19
M  V30 18 1 19 20
M  V30 19 1 20 21
M  V30 20 1 14 22
M  V30 21 1 12 7
M  V30 22 1 23 24
M  V30 23 1 24 25
M  V30 24 2 25 26
M  V30 25 1 26 27
M  V30 26 2 27 28
M  V30 27 1 28 29
M  V30 28 2 29 30
M  V30 29 1 30 25
M  V30 30 1 4 23
M  V30 31 1 5 24
M  V30 END BOND
M  V30 BEGIN SGROUP
M  V30 1 SRU 0 ATOMS=(4 4 5 23 24) CBONDS=(2 30 31) -
M  V30 BRKXYZ=(9 -3.8456 0.2351 0 -3.8456 -0.7649 0 0 0 0) BRKXYZ=(9 -1.9747 0-
M  V30 .2351 0 -1.9747 -0.7649 0 0 0 0)
M  V30 END SGROUP
M  V30 END CTAB
M  END
>  <BIGSMILES_BRACKET_RECORDS_JSON>
{
  "records": [
    {
      "id": 0,
      "bracket_kind": "backbone",
      "pairing_id": "F1/fragments[0]",
      "group_id": "$a:2",
      "ru_midpoint": [
        -2.979608416048861,
        -0.2648941082343914
      ],
      "bond_midpoint": [
        -3.8455989241188107,
        -0.2648936082288325
      ],
      "orientation_vector": [
        0.0,
        1.0
      ],
      "half_bracket_size": 0.5000070589092322,
      "bond": [
        3,
        22
      ],
      "fragment": "F1",
      "backbone": true,
      "suspended_anchor_atom": null,
      "suspended_reason": null,
      "source_label": "F1/fragments[0]",
      "marker_id": "0",
      "side": "left",
      "connection_group": "$a",
      "marker_type_index": 2
    },
    {
      "id": 1,
      "bracket_kind": "backbone",
      "pairing_id": "F1/fragments[0]",
      "group_id": "$a:2",
      "ru_midpoint": [
        -2.979608416048861,
        -0.2648941082343914
      ],
      "bond_midpoint": [
        -1.9746658004326436,
        -0.26487255014193345
      ],
      "orientation_vector": [
        0.0,
        1.0
      ],
      "half_bracket_size": 0.5000070589092322,
      "bond": [
        4,
        23
      ],
      "fragment": "F1",
      "backbone": true,
      "suspended_anchor_atom": null,
      "suspended_reason": null,
      "source_label": "F1/fragments[0]",
      "marker_id": "9",
      "side": "right",
      "connection_group": "$a",
      "marker_type_index": 2
    }
  ]
}
