
     RDKit          2D

  0  0  0  0  0  0  0  0  0  0999 V3000
M  V30 BEGIN CTAB
M  V30 COUNTS 44 46 2 0 0
M  V30 BEGIN ATOM
M  V30 1 C 6.682222 -0.287713 0.000000 0
M  V30 2 C 7.682222 -0.287713 0.000000 0
M  V30 3 C 8.182227 -1.153747 0.000000 0
M  V30 4 C 9.182237 -1.153747 0.000000 0
M  V30 5 C 9.682242 -0.287713 0.000000 0
M  V30 6 C 9.182237 0.578321 0.000000 0
M  V30 7 C 8.182227 0.578321 0.000000 0
M  V30 8 O 5.816217 0.212388 0.000000 0
M  V30 9 C 4.950221 -0.287713 0.000000 0
M  V30 10 C 4.084217 0.212388 0.000000 0
M  V30 11 O 0.619947 0.212334 0.000000 0
M  V30 12 C -0.245934 -0.287766 0.000000 0
M  V30 13 C -0.245934 -1.287767 0.000000 0
M  V30 14 O -1.111934 -1.787874 0.000000 0
M  V30 15 C -1.111934 -2.787874 0.000000 0
M  V30 16 O -0.245934 -3.287767 0.000000 0
M  V30 17 C -1.977934 -3.287782 0.000000 0
M  V30 18 C -2.977935 -3.287782 0.000000 0
M  V30 19 C -1.977934 -4.287782 0.000000 0
M  V30 20 Br -2.478042 -2.421781 0.000000 0
M  V30 21 C -2.203717 0.212334 0.000000 0
M  V30 22 C -4.161492 -0.287766 0.000000 0
M  V30 23 C -4.161492 -1.287967 0.000000 0
M  V30 24 C -5.027692 -1.787674 0.000000 0
M  V30 25 C -5.027692 -2.787874 0.000000 0
M  V30 26 C -4.161492 -3.287767 0.000000 0
M  V30 27 C -3.295492 -2.787860 0.000000 0
M  V30 28 C -3.295492 -1.787859 0.000000 0
M  V30 29 C -5.027381 0.212334 0.000000 0
M  V30 30 C -7.625359 -0.287715 0.000000 0
M  V30 31 C -8.491355 0.212385 0.000000 0
M  V30 32 C -9.357359 -0.287715 0.000000 0
M  V30 33 C -10.223355 0.212385 0.000000 0
M  V30 34 O 3.218155 -0.287550 0.000000 0
M  V30 35 C 2.352151 0.212350 0.000000 0
M  V30 36 C 1.486039 -0.287550 0.000000 0
M  V30 37 C -5.893403 -0.287672 0.000000 0
M  V30 38 C -6.759362 0.212335 0.000000 0
M  V30 39 C -6.759362 1.212337 0.000000 0
M  V30 40 C -5.893160 1.712270 0.000000 0
M  V30 41 C -5.893360 2.712272 0.000000 0
M  V30 42 C -6.759162 3.212341 0.000000 0
M  V30 43 C -7.625364 2.712408 0.000000 0
M  V30 44 C -7.625164 1.712406 0.000000 0
M  V30 END ATOM
M  V30 BEGIN BOND
M  V30 1 1 1 2
M  V30 2 2 2 3
M  V30 3 1 3 4
M  V30 4 2 4 5
M  V30 5 1 5 6
M  V30 6 2 6 7
M  V30 7 1 1 8
M  V30 8 1 8 9
M  V30 9 1 9 10
M  V30 10 1 11 12
M  V30 11 1 12 13
M  V30 12 1 13 14
M  V30 13 1 14 15
M  V30 14 2 15 16
M  V30 15 1 15 17
M  V30 16 1 17 18
M  V30 17 1 17 19
M  V30 18 1 17 20
M  V30 19 1 12 21
M  V30 20 1 21 22
M  V30 21 1 22 23
M  V30 22 2 23 24
M  V30 23 1 24 25
M  V30 24 2 25 26
M  V30 25 1 26 27
M  V30 26 2 27 28
M  V30 27 1 22 29
M  V30 28 1 30 31
M  V30 29 1 31 32
M  V30 30 1 32 33
M  V30 31 1 7 2
M  V30 32 1 28 23
M  V30 33 1 34 35
M  V30 34 1 35 36
M  V30 35 1 11 36
M  V30 36 1 10 34
M  V30 37 1 37 38
M  V30 38 1 38 39
M  V30 39 2 39 40
M  V30 40 1 40 41
M  V30 41 2 41 42
M  V30 42 1 42 43
M  V30 43 2 43 44
M  V30 44 1 44 39
M  V30 45 1 30 38
M  V30 46 1 29 37
M  V30 END BOND
M  V30 BEGIN SGROUP
M  V30 1 SRU 0 ATOMS=(4 29 30 37 38) CBONDS=(2 45 46) -
M  V30 BRKXYZ=(9 -5.4604 -0.5377 0 -5.4604 0.4623 0 0 0 0) BRKXYZ=(9 -7.1924 --
M  V30 0.5377 0 -7.1924 0.4623 0 0 0 0)
M  V30 2 SRU 0 ATOMS=(4 10 11 34 36) CBONDS=(2 35 36) -
M  V30 BRKXYZ=(9 3.6512 0.4623 0 3.6512 -0.5375 0 0 0 0) BRKXYZ=(9 1.0530 0.46-
M  V30 23 0 1.0530 -0.5375 0 0 0 0)
M  V30 END SGROUP
M  V30 END CTAB
M  END
>  <BIGSMILES_BRACKET_RECORDS_JSON>
{
  "records": [
    {
      "id": 0,
      "bracket_kind": "backbone",
      "pairing_id": "F2/fragments[0]",
      "group_id": "$a:2",
      "ru_midpoint": [
        -6.326357178666548,
        -0.03766859134335926
      ],
      "bond_midpoint": [
        -5.4603921390668875,
        -0.037669091348918035
      ],
      "orientation_vector": [
        0.0,
        -1.0
      ],
      "half_bracket_size": 0.5000070589092322,
      "bond": [
        28,
        36
      ],
      "fragment": "F2",
      "backbone": true,
      "suspended_anchor_atom": null,
      "suspended_reason": null,
      "source_label": "F2/fragments[0]",
      "marker_id": "0",
      "side": "left",
      "connection_group": "$a",
      "marker_type_index": 2
    },
    {
      "id": 1,
      "bracket_kind": "backbone",
      "pairing_id": "F2/fragments[0]",
      "group_id": "$a:2",
      "ru_midpoint": [
        -6.326357178666548,
        -0.03766859134335926
      ],
      "bond_midpoint": [
        -7.192360419003054,
        -0.0376901494358171
      ],
      "orientation_vector": [
        0.0,
        -1.0
      ],
      "half_bracket_size": 0.5000070589092322,
      "bond": [
        29,
        37
      ],
      "fragment": "F2",
      "backbone": true,
      "suspended_anchor_atom": null,
      "suspended_reason": null,
      "source_label": "F2/fragments[0]",
      "marker_id": "9",
      "side": "right",
      "connection_group": "$a",
      "marker_type_index": 2
    },
    {
      "id": 2,
      "bracket_kind": "backbone",
      "pairing_id": "F1/fragments[0]",
      "group_id": "<1:3",
      "ru_midpoint": [
        2.3520832494897403,
        0.012389870131308822
      ],
      "bond_midpoint": [
        3.651185893809865,
        -0.037581347503728366
      ],
      "orientation_vector": [
        0.0,
        1.0
      ],
      "half_bracket_size": 0.49990016001536197,
      "bond": [
        9,
        33
      ],
      "fragment": "F1",
      "backbone": true,
      "suspended_anchor_atom": null,
      "suspended_reason": null,
      "source_label": "F1/fragments[0]",
      "marker_id": "0",
      "side": "left",
      "connection_group": "<1",
      "marker_type_index": 3
    },
    {
      "id": 3,
      "bracket_kind": "backbone",
      "pairing_id": "F1/fragments[0]",
      "group_id": ">1:4",
      "ru_midpoint": [
        2.3520832494897403,
        0.012389870131308822
      ],
      "bond_midpoint": [
        1.0529932191955278,
        -0.03760814388888471
      ],
      "orientation_vector": [
        0.0,
        1.0
      ],
      "half_bracket_size": 0.49990016001536197,
      "bond": [
        10,
        35
      ],
      "fragment": "F1",
      "backbone": true,
      "suspended_anchor_atom": null,
      "suspended_reason": null,
      "source_label": "F1/fragments[0]",
      "marker_id": "4",
      "side": "right",
      "connection_group": ">1",
      "marker_type_index": 4
    }
  ]
}
