
     RDKit          2D

  0  0  0  0  0  0  0  0  0  0999 V3000
M  V30 BEGIN CTAB
M  V30 COUNTS 154 160 6 0 0
M  V30 BEGIN ATOM
M  V30 1 C 5.466123 0.884716 0.000000 0
M  V30 2 C 6.332127 0.384816 0.000000 0
M  V30 3 C 6.332127 -0.615384 0.000000 0
M  V30 4 C 7.198127 -1.115292 0.000000 0
M  V30 5 C 7.198127 -2.115292 0.000000 0
M  V30 6 C 6.332127 -2.615185 0.000000 0
M  V30 7 C 5.466127 -2.115278 0.000000 0
M  V30 8 C 5.466127 -1.115277 0.000000 0
M  V30 9 C 7.337137 0.884716 0.000000 0
M  V30 10 C 8.342234 0.384816 0.000000 0
M  V30 11 C 8.342234 -0.615116 0.000000 0
M  V30 12 C 9.207947 -1.115307 0.000000 0
M  V30 13 C 9.208120 -2.115138 0.000000 0
M  V30 14 C 8.341888 -2.615180 0.000000 0
M  V30 15 C 7.476001 -2.115090 0.000000 0
M  V30 16 C 7.476001 -1.115158 0.000000 0
M  V30 17 C 9.460836 0.884716 0.000000 0
M  V30 18 C 10.579446 0.384816 0.000000 0
M  V30 19 C 10.579446 -0.824559 0.000000 0
M  V30 20 O 9.713446 -1.324452 0.000000 0
M  V30 21 O 11.445446 -1.324467 0.000000 0
M  V30 22 C 11.445446 -2.324467 0.000000 0
M  V30 23 C 10.445446 -2.324467 0.000000 0
M  V30 24 C 10.945539 -3.190467 0.000000 0
M  V30 25 C 12.311447 -2.824575 0.000000 0
M  V30 26 C 13.177589 0.884750 0.000000 0
M  V30 27 C 13.177589 -0.115182 0.000000 0
M  V30 28 C 13.177589 1.884775 0.000000 0
M  V30 29 C 14.043585 0.384850 0.000000 0
M  V30 30 O 14.043583 -0.615151 0.000000 0
M  V30 31 O 14.909589 0.884750 0.000000 0
M  V30 32 C 15.775586 0.384850 0.000000 0
M  V30 33 C 16.641590 0.884750 0.000000 0
M  V30 34 C -4.301012 0.101427 0.000000 0
M  V30 35 C -4.301012 -0.898497 0.000000 0
M  V30 36 C -3.434773 -1.398528 0.000000 0
M  V30 37 C -3.434773 -2.398453 0.000000 0
M  V30 38 C -4.300765 -2.898720 0.000000 0
M  V30 39 C -5.167004 -2.398689 0.000000 0
M  V30 40 C -5.166904 -1.398591 0.000000 0
M  V30 41 C -3.296051 0.601393 0.000000 0
M  V30 42 C -2.291061 0.101427 0.000000 0
M  V30 43 C -2.291061 -0.898431 0.000000 0
M  V30 44 C -1.424938 -1.398458 0.000000 0
M  V30 45 C -1.424491 -2.398290 0.000000 0
M  V30 46 C -2.290587 -2.898568 0.000000 0
M  V30 47 C -3.156610 -2.398715 0.000000 0
M  V30 48 C -3.156984 -1.398610 0.000000 0
M  V30 49 C -1.147086 0.601393 0.000000 0
M  V30 50 C -0.003190 0.101427 0.000000 0
M  V30 51 C -0.003190 -0.898573 0.000000 0
M  V30 52 O 0.862810 -1.398680 0.000000 0
M  V30 53 O -0.869190 -1.398666 0.000000 0
M  V30 54 C -0.869190 -2.398666 0.000000 0
M  V30 55 C 0.130810 -2.398666 0.000000 0
M  V30 56 C -0.369297 -3.264667 0.000000 0
M  V30 57 C -1.735190 -2.898559 0.000000 0
M  V30 58 C 3.340754 0.601361 0.000000 0
M  V30 59 C 3.340754 -0.398563 0.000000 0
M  V30 60 C 3.340754 1.601393 0.000000 0
M  V30 61 C 4.206627 0.101396 0.000000 0
M  V30 62 O 4.206525 -0.898605 0.000000 0
M  V30 63 O 5.072909 0.601361 0.000000 0
M  V30 64 C 5.938782 0.101396 0.000000 0
M  V30 65 C 6.805064 0.601361 0.000000 0
M  V30 66 C 1.608674 0.601362 0.000000 0
M  V30 67 C 2.474670 0.101461 0.000000 0
M  V30 68 C 2.474670 -0.898470 0.000000 0
M  V30 69 O 3.340730 -1.398412 0.000000 0
M  V30 70 O 1.608784 -1.398561 0.000000 0
M  V30 71 C 1.608784 -2.398493 0.000000 0
M  V30 72 C 2.608816 -2.398320 0.000000 0
M  V30 73 C 2.108874 -3.264379 0.000000 0
M  V30 74 C 0.742725 -2.898483 0.000000 0
M  V30 75 C 3.341008 1.351189 0.000000 0
M  V30 76 C 4.207055 1.851151 0.000000 0
M  V30 77 C 4.207055 2.851003 0.000000 0
M  V30 78 C 3.340926 3.351033 0.000000 0
M  V30 79 C 3.340653 4.350958 0.000000 0
M  V30 80 C 4.206582 4.851125 0.000000 0
M  V30 81 C 5.072611 4.351268 0.000000 0
M  V30 82 C 5.072984 3.351170 0.000000 0
M  V30 83 C 5.073139 1.351189 0.000000 0
M  V30 84 C 7.671117 1.851238 0.000000 0
M  V30 85 C 8.537192 1.351276 0.000000 0
M  V30 86 C 9.403161 1.851238 0.000000 0
M  V30 87 C 10.269121 1.351276 0.000000 0
M  V30 88 C 5.939161 1.851195 0.000000 0
M  V30 89 C 6.805120 1.351188 0.000000 0
M  V30 90 C 6.805120 0.015151 0.000000 0
M  V30 91 C 5.938918 -0.484783 0.000000 0
M  V30 92 C 5.939118 -1.484784 0.000000 0
M  V30 93 C 6.804920 -1.984854 0.000000 0
M  V30 94 C 7.671122 -1.484920 0.000000 0
M  V30 95 C 7.670922 -0.484919 0.000000 0
M  V30 96 O 2.707215 0.284375 0.000000 0
M  V30 97 C 3.573269 0.784375 0.000000 0
M  V30 98 C 7.037077 0.784429 0.000000 0
M  V30 99 C 7.903023 0.284429 0.000000 0
M  V30 100 O 8.768962 0.784429 0.000000 0
M  V30 101 C 9.634908 0.284429 0.000000 0
M  V30 102 C 10.634908 0.284429 0.000000 0
M  V30 103 C 11.134932 -0.581638 0.000000 0
M  V30 104 C 12.134980 -0.581638 0.000000 0
M  V30 105 C 12.635004 0.284429 0.000000 0
M  V30 106 C 12.134980 1.627547 0.000000 0
M  V30 107 C 11.134932 1.627547 0.000000 0
M  V30 108 C 4.439246 0.284291 0.000000 0
M  V30 109 C 5.305242 0.784391 0.000000 0
M  V30 110 O 6.171131 0.284291 0.000000 0
M  V30 111 C 11.445509 0.884750 0.000000 0
M  V30 112 C 12.311506 0.384850 0.000000 0
M  V30 113 C 12.311506 -0.800531 0.000000 0
M  V30 114 O 13.177565 -1.300473 0.000000 0
M  V30 115 O 11.445619 -1.300622 0.000000 0
M  V30 116 C 11.445619 -2.300553 0.000000 0
M  V30 117 C 12.445651 -2.300380 0.000000 0
M  V30 118 C 11.945710 -3.166440 0.000000 0
M  V30 119 C 10.579560 -2.800544 0.000000 0
M  V30 120 C 16.641590 1.884675 0.000000 0
M  V30 121 C 16.141628 2.750722 0.000000 0
M  V30 122 C 15.141776 2.750722 0.000000 0
M  V30 123 C 14.641746 1.884593 0.000000 0
M  V30 124 C 13.641821 1.884320 0.000000 0
M  V30 125 C 13.141653 2.750249 0.000000 0
M  V30 126 C 13.641511 3.616278 0.000000 0
M  V30 127 C 14.641609 3.616651 0.000000 0
M  V30 128 C 16.641590 3.616806 0.000000 0
M  V30 129 C 16.141541 6.214784 0.000000 0
M  V30 130 C 16.641503 7.080859 0.000000 0
M  V30 131 C 16.141541 7.946828 0.000000 0
M  V30 132 C 16.641503 8.812788 0.000000 0
M  V30 133 C 16.141584 4.482828 0.000000 0
M  V30 134 C 16.641591 5.348787 0.000000 0
M  V30 135 C 17.641593 5.348787 0.000000 0
M  V30 136 C 18.141526 4.482585 0.000000 0
M  V30 137 C 19.141528 4.482785 0.000000 0
M  V30 138 C 19.641597 5.348587 0.000000 0
M  V30 139 C 19.141664 6.214789 0.000000 0
M  V30 140 C 18.141662 6.214589 0.000000 0
M  V30 141 O 17.507673 0.384850 0.000000 0
M  V30 142 C 20.971481 0.384796 0.000000 0
M  V30 143 C 21.837543 0.884796 0.000000 0
M  V30 144 O 22.703597 0.384796 0.000000 0
M  V30 145 C 23.569659 0.884796 0.000000 0
M  V30 146 C 24.569659 0.884796 0.000000 0
M  V30 147 C 25.069635 1.750780 0.000000 0
M  V30 148 C 26.069588 1.750780 0.000000 0
M  V30 149 C 26.569564 0.884796 0.000000 0
M  V30 150 C 26.069588 0.018812 0.000000 0
M  V30 151 C 25.069635 0.018812 0.000000 0
M  V30 152 C 18.373650 0.884934 0.000000 0
M  V30 153 C 19.239646 0.384834 0.000000 0
M  V30 154 O 20.105535 0.884934 0.000000 0
M  V30 END ATOM
M  V30 BEGIN BOND
M  V30 1 1 1 2
M  V30 2 1 2 3
M  V30 3 2 3 4
M  V30 4 1 4 5
M  V30 5 2 5 6
M  V30 6 1 6 7
M  V30 7 2 7 8
M  V30 8 1 2 9
M  V30 9 1 9 10
M  V30 10 1 10 11
M  V30 11 2 11 12
M  V30 12 1 12 13
M  V30 13 2 13 14
M  V30 14 1 14 15
M  V30 15 2 15 16
M  V30 16 1 10 17
M  V30 17 1 17 18
M  V30 18 1 18 19
M  V30 19 2 19 20
M  V30 20 1 19 21
M  V30 21 1 21 22
M  V30 22 1 22 23
M  V30 23 1 22 24
M  V30 24 1 22 25
M  V30 25 1 26 27
M  V30 26 1 26 28
M  V30 27 1 26 29
M  V30 28 2 29 30
M  V30 29 1 29 31
M  V30 30 1 31 32
M  V30 31 1 32 33
M  V30 32 1 8 3
M  V30 33 1 16 11
M  V30 34 1 34 35
M  V30 35 2 35 36
M  V30 36 1 36 37
M  V30 37 2 37 38
M  V30 38 1 38 39
M  V30 39 2 39 40
M  V30 40 1 34 41
M  V30 41 1 41 42
M  V30 42 1 42 43
M  V30 43 2 43 44
M  V30 44 1 44 45
M  V30 45 2 45 46
M  V30 46 1 46 47
M  V30 47 2 47 48
M  V30 48 1 42 49
M  V30 49 1 49 50
M  V30 50 1 50 51
M  V30 51 2 51 52
M  V30 52 1 51 53
M  V30 53 1 53 54
M  V30 54 1 54 55
M  V30 55 1 54 56
M  V30 56 1 54 57
M  V30 57 1 58 59
M  V30 58 1 58 60
M  V30 59 1 58 61
M  V30 60 2 61 62
M  V30 61 1 61 63
M  V30 62 1 63 64
M  V30 63 1 64 65
M  V30 64 1 40 35
M  V30 65 1 48 43
M  V30 66 1 66 67
M  V30 67 1 67 68
M  V30 68 2 68 69
M  V30 69 1 68 70
M  V30 70 1 70 71
M  V30 71 1 71 72
M  V30 72 1 71 73
M  V30 73 1 71 74
M  V30 74 1 50 66
M  V30 75 1 58 67
M  V30 76 1 75 76
M  V30 77 1 76 77
M  V30 78 2 77 78
M  V30 79 1 78 79
M  V30 80 2 79 80
M  V30 81 1 80 81
M  V30 82 2 81 82
M  V30 83 1 76 83
M  V30 84 1 84 85
M  V30 85 1 85 86
M  V30 86 1 86 87
M  V30 87 1 82 77
M  V30 88 1 88 89
M  V30 89 1 89 90
M  V30 90 2 90 91
M  V30 91 1 91 92
M  V30 92 2 92 93
M  V30 93 1 93 94
M  V30 94 2 94 95
M  V30 95 1 95 90
M  V30 96 1 83 88
M  V30 97 1 84 89
M  V30 98 1 96 97
M  V30 99 1 98 99
M  V30 100 1 99 100
M  V30 101 1 100 101
M  V30 102 1 101 102
M  V30 103 2 102 103
M  V30 104 1 103 104
M  V30 105 2 104 105
M  V30 106 1 105 106
M  V30 107 2 106 107
M  V30 108 1 107 102
M  V30 109 1 108 109
M  V30 110 1 109 110
M  V30 111 1 97 108
M  V30 112 1 98 110
M  V30 113 1 111 112
M  V30 114 1 112 113
M  V30 115 2 113 114
M  V30 116 1 113 115
M  V30 117 1 115 116
M  V30 118 1 116 117
M  V30 119 1 116 118
M  V30 120 1 116 119
M  V30 121 1 18 111
M  V30 122 1 26 112
M  V30 123 1 120 121
M  V30 124 1 121 122
M  V30 125 2 122 123
M  V30 126 1 123 124
M  V30 127 2 124 125
M  V30 128 1 125 126
M  V30 129 2 126 127
M  V30 130 1 121 128
M  V30 131 1 129 130
M  V30 132 1 130 131
M  V30 133 1 131 132
M  V30 134 1 127 122
M  V30 135 1 133 134
M  V30 136 1 134 135
M  V30 137 2 135 136
M  V30 138 1 136 137
M  V30 139 2 137 138
M  V30 140 1 138 139
M  V30 141 2 139 140
M  V30 142 1 140 135
M  V30 143 1 128 133
M  V30 144 1 129 134
M  V30 145 1 33 120
M  V30 146 1 142 143
M  V30 147 1 143 144
M  V30 148 1 144 145
M  V30 149 1 145 146
M  V30 150 2 146 147
M  V30 151 1 147 148
M  V30 152 2 148 149
M  V30 153 1 149 150
M  V30 154 2 150 151
M  V30 155 1 151 146
M  V30 156 1 152 153
M  V30 157 1 153 154
M  V30 158 1 141 152
M  V30 159 1 142 154
M  V30 160 1 33 141
M  V30 END BOND
M  V30 BEGIN SGROUP
M  V30 1 SRU 0 ATOMS=(4 97 98 108 110) CBONDS=(2 111 112) -
M  V30 BRKXYZ=(9 4.0063 1.0344 0 4.0063 0.0342 0 0 0 0) BRKXYZ=(9 6.6041 1.034-
M  V30 5 0 6.6041 0.0343 0 0 0 0)
M  V30 2 SRU 0 ATOMS=(4 83 84 88 89) CBONDS=(2 96 97) -
M  V30 BRKXYZ=(9 5.5062 2.1012 0 5.5062 1.1012 0 0 0 0) BRKXYZ=(9 7.2381 2.101-
M  V30 2 0 7.2381 1.1012 0 0 0 0)
M  V30 3 SRU 0 ATOMS=(4 50 58 66 67) CBONDS=(2 74 75) -
M  V30 BRKXYZ=(9 0.8027 0.8513 0 0.8027 -0.1485 0 0 0 0) BRKXYZ=(9 2.9077 0.85-
M  V30 13 0 2.9077 -0.1485 0 0 0 0)
M  V30 4 SRU 0 ATOMS=(4 141 142 152 154) CBONDS=(2 158 159) -
M  V30 BRKXYZ=(9 17.9407 0.1348 0 17.9407 1.1350 0 0 0 0) BRKXYZ=(9 20.5385 0.-
M  V30 1348 0 20.5385 1.1350 0 0 0 0)
M  V30 5 SRU 0 ATOMS=(4 128 129 133 134) CBONDS=(2 143 144) -
M  V30 BRKXYZ=(9 15.8916 4.0498 0 16.8916 4.0498 0 0 0 0) BRKXYZ=(9 15.8916 5.-
M  V30 7818 0 16.8916 5.7818 0 0 0 0)
M  V30 6 SRU 0 ATOMS=(4 18 26 111 112) CBONDS=(2 121 122) -
M  V30 BRKXYZ=(9 11.0125 1.1347 0 11.0125 0.1349 0 0 0 0) BRKXYZ=(9 12.7445 1.-
M  V30 1347 0 12.7445 0.1349 0 0 0 0)
M  V30 END SGROUP
M  V30 END CTAB
M  END
>  <BIGSMILES_BRACKET_RECORDS_JSON>
{
  "records": [
    {
      "id": 0,
      "bracket_kind": "backbone",
      "pairing_id": "F9/fragments[0]",
      "group_id": "<1:3",
      "ru_midpoint": [
        5.305206300383272,
        0.4509913300154194
      ],
      "bond_midpoint": [
        4.0062575725205525,
        0.534333355455254
      ],
      "orientation_vector": [
        0.0,
        1.0
      ],
      "half_bracket_size": 0.5001001599500253,
      "bond": [
        96,
        107
      ],
      "fragment": "F9",
      "backbone": true,
      "suspended_anchor_atom": null,
      "suspended_reason": null,
      "source_label": "F9/fragments[0]",
      "marker_id": "0",
      "side": "left",
      "connection_group": "<1",
      "marker_type_index": 3
    },
    {
      "id": 1,
      "bracket_kind": "backbone",
      "pairing_id": "F9/fragments[0]",
      "group_id": ">1:4",
      "ru_midpoint": [
        5.305206300383272,
        0.4509913300154194
      ],
      "bond_midpoint": [
        6.604103824418061,
        0.5343601625611017
      ],
      "orientation_vector": [
        0.0,
        1.0
      ],
      "half_bracket_size": 0.5001001599500253,
      "bond": [
        97,
        109
      ],
      "fragment": "F9",
      "backbone": true,
      "suspended_anchor_atom": null,
      "suspended_reason": null,
      "source_label": "F9/fragments[0]",
      "marker_id": "4",
      "side": "right",
      "connection_group": ">1",
      "marker_type_index": 4
    },
    {
      "id": 2,
      "bracket_kind": "backbone",
      "pairing_id": "F8/fragments[0]",
      "group_id": "$a:2",
      "ru_midpoint": [
        6.372140699126141,
        1.601191307265709
      ],
      "bond_midpoint": [
        5.506150191056191,
        1.6011918072712676
      ],
      "orientation_vector": [
        0.0,
        1.0
      ],
      "half_bracket_size": 0.5000070589092322,
      "bond": [
        82,
        87
      ],
      "fragment": "F8",
      "backbone": true,
      "suspended_anchor_atom": null,
      "suspended_reason": null,
      "source_label": "F8/fragments[0]",
      "marker_id": "0",
      "side": "left",
      "connection_group": "$a",
      "marker_type_index": 2
    },
    {
      "id": 3,
      "bracket_kind": "backbone",
      "pairing_id": "F8/fragments[0]",
      "group_id": "$a:2",
      "ru_midpoint": [
        6.372140699126141,
        1.601191307265709
      ],
      "bond_midpoint": [
        7.238118470992359,
        1.6012128653581668
      ],
      "orientation_vector": [
        0.0,
        1.0
      ],
      "half_bracket_size": 0.5000070589092322,
      "bond": [
        83,
        88
      ],
      "fragment": "F8",
      "backbone": true,
      "suspended_anchor_atom": null,
      "suspended_reason": null,
      "source_label": "F8/fragments[0]",
      "marker_id": "9",
      "side": "right",
      "connection_group": "$a",
      "marker_type_index": 2
    },
    {
      "id": 4,
      "bracket_kind": "backbone",
      "pairing_id": "F5/fragments[0]",
      "group_id": "$a:2",
      "ru_midpoint": [
        2.0416723352189017,
        0.3514115563610821
      ],
      "bond_midpoint": [
        0.802742153899477,
        0.3513945230216332
      ],
      "orientation_vector": [
        0.0,
        1.0
      ],
      "half_bracket_size": 0.4999001600153622,
      "bond": [
        49,
        65
      ],
      "fragment": "F5",
      "backbone": true,
      "suspended_anchor_atom": null,
      "suspended_reason": null,
      "source_label": "F5/fragments[0]",
      "marker_id": "0",
      "side": "left",
      "connection_group": "$a",
      "marker_type_index": 2
    },
    {
      "id": 5,
      "bracket_kind": "backbone",
      "pairing_id": "F5/fragments[0]",
      "group_id": "$a:2",
      "ru_midpoint": [
        2.0416723352189017,
        0.3514115563610821
      ],
      "bond_midpoint": [
        2.9077120041115316,
        0.3514114763770948
      ],
      "orientation_vector": [
        0.0,
        1.0
      ],
      "half_bracket_size": 0.4999001600153622,
      "bond": [
        57,
        66
      ],
      "fragment": "F5",
      "backbone": true,
      "suspended_anchor_atom": null,
      "suspended_reason": null,
      "source_label": "F5/fragments[0]",
      "marker_id": "10",
      "side": "right",
      "connection_group": "$a",
      "marker_type_index": 2
    },
    {
      "id": 6,
      "bracket_kind": "backbone",
      "pairing_id": "F11/fragments[0]",
      "group_id": "<1:3",
      "ru_midpoint": [
        19.23957856048303,
        0.5848738215673489
      ],
      "bond_midpoint": [
        17.94066173619808,
        0.6348918387808542
      ],
      "orientation_vector": [
        0.0,
        -1.0
      ],
      "half_bracket_size": 0.5001001599500253,
      "bond": [
        140,
        151
      ],
      "fragment": "F11",
      "backbone": true,
      "suspended_anchor_atom": null,
      "suspended_reason": null,
      "source_label": "F11/fragments[0]",
      "marker_id": "0",
      "side": "left",
      "connection_group": "<1",
      "marker_type_index": 3
    },
    {
      "id": 7,
      "bracket_kind": "backbone",
      "pairing_id": "F11/fragments[0]",
      "group_id": ">1:4",
      "ru_midpoint": [
        19.23957856048303,
        0.5848738215673489
      ],
      "bond_midpoint": [
        20.53850798809559,
        0.6348650316750066
      ],
      "orientation_vector": [
        0.0,
        -1.0
      ],
      "half_bracket_size": 0.5001001599500253,
      "bond": [
        141,
        153
      ],
      "fragment": "F11",
      "backbone": true,
      "suspended_anchor_atom": null,
      "suspended_reason": null,
      "source_label": "F11/fragments[0]",
      "marker_id": "4",
      "side": "right",
      "connection_group": ">1",
      "marker_type_index": 4
    },
    {
      "id": 8,
      "bracket_kind": "backbone",
      "pairing_id": "F10/fragments[0]",
      "group_id": "$a:2",
      "ru_midpoint": [
        16.391587393536888,
        4.9157822519854015
      ],
      "bond_midpoint": [
        16.391586893531326,
        4.049817212385739
      ],
      "orientation_vector": [
        -1.0,
        0.0
      ],
      "half_bracket_size": 0.5000070589092322,
      "bond": [
        127,
        132
      ],
      "fragment": "F10",
      "backbone": true,
      "suspended_anchor_atom": null,
      "suspended_reason": null,
      "source_label": "F10/fragments[0]",
      "marker_id": "0",
      "side": "left",
      "connection_group": "$a",
      "marker_type_index": 2
    },
    {
      "id": 9,
      "bracket_kind": "backbone",
      "pairing_id": "F10/fragments[0]",
      "group_id": "$a:2",
      "ru_midpoint": [
        16.391587393536888,
        4.9157822519854015
      ],
      "bond_midpoint": [
        16.391565835444425,
        5.781785492321904
      ],
      "orientation_vector": [
        -1.0,
        0.0
      ],
      "half_bracket_size": 0.5000070589092322,
      "bond": [
        128,
        133
      ],
      "fragment": "F10",
      "backbone": true,
      "suspended_anchor_atom": null,
      "suspended_reason": null,
      "source_label": "F10/fragments[0]",
      "marker_id": "9",
      "side": "right",
      "connection_group": "$a",
      "marker_type_index": 2
    },
    {
      "id": 10,
      "bracket_kind": "backbone",
      "pairing_id": "F2/fragments[0]",
      "group_id": "$a:2",
      "ru_midpoint": [
        11.87850755690496,
        0.6347999999999996
      ],
      "bond_midpoint": [
        11.012477766210534,
        0.6347829666605507
      ],
      "orientation_vector": [
        0.0,
        1.0
      ],
      "half_bracket_size": 0.4999001600153622,
      "bond": [
        17,
        110
      ],
      "fragment": "F2",
      "backbone": true,
      "suspended_anchor_atom": null,
      "suspended_reason": null,
      "source_label": "F2/fragments[0]",
      "marker_id": "0",
      "side": "left",
      "connection_group": "$a",
      "marker_type_index": 2
    },
    {
      "id": 11,
      "bracket_kind": "backbone",
      "pairing_id": "F2/fragments[0]",
      "group_id": "$a:2",
      "ru_midpoint": [
        11.87850755690496,
        0.6347999999999996
      ],
      "bond_midpoint": [
        12.74454722579759,
        0.6347999200160124
      ],
      "orientation_vector": [
        0.0,
        1.0
      ],
      "half_bracket_size": 0.4999001600153622,
      "bond": [
        25,
        111
      ],
      "fragment": "F2",
      "backbone": true,
      "suspended_anchor_atom": null,
      "suspended_reason": null,
      "source_label": "F2/fragments[0]",
      "marker_id": "10",
      "side": "right",
      "connection_group": "$a",
      "marker_type_index": 2
    }
  ]
}
