
     RDKit          2D

  0  0  0  0  0  0  0  0  0  0999 V3000
M  V30 BEGIN CTAB
M  V30 COUNTS 64 67 3 0 0
M  V30 BEGIN ATOM
M  V30 1 C 13.647590 3.499882 0.000000 0
M  V30 2 C 12.781594 3.999982 0.000000 0
M  V30 3 O 12.781596 4.999982 0.000000 0
M  V30 4 O 11.915589 3.499882 0.000000 0
M  V30 5 C 11.049593 3.999982 0.000000 0
M  V30 6 C 10.183589 3.499882 0.000000 0
M  V30 7 O 9.317593 3.999982 0.000000 0
M  V30 8 C 14.513594 3.999982 0.000000 0
M  V30 9 C 15.379590 3.499882 0.000000 0
M  V30 10 O 15.379617 2.499882 0.000000 0
M  V30 11 O 16.245479 3.999982 0.000000 0
M  V30 12 C 17.111360 3.499882 0.000000 0
M  V30 13 C 17.977249 3.999982 0.000000 0
M  V30 14 O 18.843130 3.499882 0.000000 0
M  V30 15 C 22.306937 3.499828 0.000000 0
M  V30 16 C 23.172826 3.999928 0.000000 0
M  V30 17 O 24.038707 3.499828 0.000000 0
M  V30 18 C 24.904596 3.999928 0.000000 0
M  V30 19 O 24.904569 4.999929 0.000000 0
M  V30 20 C 25.770592 3.499828 0.000000 0
M  V30 21 C 26.636596 3.999928 0.000000 0
M  V30 22 C 30.517631 3.499828 0.000000 0
M  V30 23 O 30.517629 2.499828 0.000000 0
M  V30 24 O 31.383636 3.999928 0.000000 0
M  V30 25 C 32.249632 3.499828 0.000000 0
M  V30 26 C 33.115636 3.999928 0.000000 0
M  V30 27 O 33.981633 3.499828 0.000000 0
M  V30 28 S 13.647633 0.767926 0.000000 0
M  V30 29 C 13.147580 -0.098175 0.000000 0
M  V30 30 S 12.147573 -0.098175 0.000000 0
M  V30 31 C 13.147580 -1.098175 0.000000 0
M  V30 32 C 12.281561 -1.598171 0.000000 0
M  V30 33 C 12.281561 -2.598163 0.000000 0
M  V30 34 C 13.147580 -3.098159 0.000000 0
M  V30 35 C 14.013598 -2.598163 0.000000 0
M  V30 36 C 14.013598 -1.598171 0.000000 0
M  V30 37 C 13.647590 2.499882 0.000000 0
M  V30 38 C 13.147583 1.633923 0.000000 0
M  V30 39 C 12.147581 1.633923 0.000000 0
M  V30 40 C 11.647647 2.500125 0.000000 0
M  V30 41 C 10.647646 2.499925 0.000000 0
M  V30 42 C 10.147576 1.634123 0.000000 0
M  V30 43 C 10.647510 0.767921 0.000000 0
M  V30 44 C 11.647511 0.768121 0.000000 0
M  V30 45 C 19.709106 3.999966 0.000000 0
M  V30 46 C 20.575103 3.499866 0.000000 0
M  V30 47 O 21.440991 3.999966 0.000000 0
M  V30 48 S 26.636553 1.267973 0.000000 0
M  V30 49 C 27.136606 0.401871 0.000000 0
M  V30 50 S 28.136613 0.401871 0.000000 0
M  V30 51 C 27.136606 -0.598129 0.000000 0
M  V30 52 C 28.002625 -1.098125 0.000000 0
M  V30 53 C 28.002625 -2.098117 0.000000 0
M  V30 54 C 27.136606 -2.598113 0.000000 0
M  V30 55 C 26.270588 -2.098117 0.000000 0
M  V30 56 C 26.270588 -1.098125 0.000000 0
M  V30 57 C 26.636596 2.999928 0.000000 0
M  V30 58 C 27.136603 2.133969 0.000000 0
M  V30 59 C 28.136605 2.133969 0.000000 0
M  V30 60 C 28.636539 3.000171 0.000000 0
M  V30 61 C 29.636540 2.999971 0.000000 0
M  V30 62 C 30.136610 2.134169 0.000000 0
M  V30 63 C 29.636676 1.267967 0.000000 0
M  V30 64 C 28.636675 1.268167 0.000000 0
M  V30 END ATOM
M  V30 BEGIN BOND
M  V30 1 1 1 2
M  V30 2 2 2 3
M  V30 3 1 2 4
M  V30 4 1 4 5
M  V30 5 1 5 6
M  V30 6 1 6 7
M  V30 7 1 1 8
M  V30 8 1 8 9
M  V30 9 2 9 10
M  V30 10 1 9 11
M  V30 11 1 11 12
M  V30 12 1 12 13
M  V30 13 1 13 14
M  V30 14 1 15 16
M  V30 15 1 16 17
M  V30 16 1 17 18
M  V30 17 2 18 19
M  V30 18 1 18 20
M  V30 19 1 20 21
M  V30 20 1 21 22
M  V30 21 2 22 23
M  V30 22 1 22 24
M  V30 23 1 24 25
M  V30 24 1 25 26
M  V30 25 1 26 27
M  V30 26 1 28 29
M  V30 27 2 29 30
M  V30 28 1 29 31
M  V30 29 2 31 32
M  V30 30 1 32 33
M  V30 31 2 33 34
M  V30 32 1 34 35
M  V30 33 2 35 36
M  V30 34 1 36 31
M  V30 35 1 37 38
M  V30 36 1 38 39
M  V30 37 2 39 40
M  V30 38 1 40 41
M  V30 39 2 41 42
M  V30 40 1 42 43
M  V30 41 2 43 44
M  V30 42 1 44 39
M  V30 43 1 28 38
M  V30 44 1 1 37
M  V30 45 1 45 46
M  V30 46 1 46 47
M  V30 47 1 14 45
M  V30 48 1 15 47
M  V30 49 1 48 49
M  V30 50 2 49 50
M  V30 51 1 49 51
M  V30 52 2 51 52
M  V30 53 1 52 53
M  V30 54 2 53 54
M  V30 55 1 54 55
M  V30 56 2 55 56
M  V30 57 1 56 51
M  V30 58 1 57 58
M  V30 59 1 58 59
M  V30 60 2 59 60
M  V30 61 1 60 61
M  V30 62 2 61 62
M  V30 63 1 62 63
M  V30 64 2 63 64
M  V30 65 1 64 59
M  V30 66 1 48 58
M  V30 67 1 21 57
M  V30 END BOND
M  V30 BEGIN SGROUP
M  V30 1 SRU 0 ATOMS=(4 21 48 57 58) CBONDS=(2 66 67) -
M  V30 BRKXYZ=(9 26.1366 3.4999 0 27.1366 3.4999 0 0 0 0) BRKXYZ=(9 26.3866 1.-
M  V30 7010 0 27.3866 1.7010 0 0 0 0)
M  V30 2 SRU 0 ATOMS=(4 1 28 37 38) CBONDS=(2 43 44) -
M  V30 BRKXYZ=(9 14.1476 2.9999 0 13.1476 2.9999 0 0 0 0) BRKXYZ=(9 13.8976 1.-
M  V30 2009 0 12.8976 1.2009 0 0 0 0)
M  V30 3 SRU 0 ATOMS=(4 14 15 45 47) CBONDS=(2 47 48) -
M  V30 BRKXYZ=(9 19.2761 3.2498 0 19.2761 4.2500 0 0 0 0) BRKXYZ=(9 21.8740 3.-
M  V30 2498 0 21.8740 4.2500 0 0 0 0)
M  V30 END SGROUP
M  V30 END CTAB
M  END
>  <BIGSMILES_BRACKET_RECORDS_JSON>
{
  "records": [
    {
      "id": 0,
      "bracket_kind": "backbone",
      "pairing_id": "F5/fragments[0]",
      "group_id": "$a:2",
      "ru_midpoint": [
        26.886599805836372,
        2.566948816939386
      ],
      "bond_midpoint": [
        26.636596276381756,
        3.4999283721844745
      ],
      "orientation_vector": [
        -1.0,
        0.0
      ],
      "half_bracket_size": 0.5000070589092322,
      "bond": [
        20,
        56
      ],
      "fragment": "F5",
      "backbone": true,
      "suspended_anchor_atom": null,
      "suspended_reason": null,
      "source_label": "F5/fragments[0]",
      "marker_id": "0",
      "side": "left",
      "connection_group": "$a",
      "marker_type_index": 2
    },
    {
      "id": 1,
      "bracket_kind": "backbone",
      "pairing_id": "F5/fragments[0]",
      "group_id": "$a:2",
      "ru_midpoint": [
        26.886599805836372,
        2.566948816939386
      ],
      "bond_midpoint": [
        26.886578247743913,
        1.7009710450731679
      ],
      "orientation_vector": [
        -1.0,
        0.0
      ],
      "half_bracket_size": 0.5000070589092322,
      "bond": [
        47,
        57
      ],
      "fragment": "F5",
      "backbone": true,
      "suspended_anchor_atom": null,
      "suspended_reason": null,
      "source_label": "F5/fragments[0]",
      "marker_id": "9",
      "side": "right",
      "connection_group": "$a",
      "marker_type_index": 2
    },
    {
      "id": 2,
      "bracket_kind": "backbone",
      "pairing_id": "F4/fragments[0]",
      "group_id": "$a:2",
      "ru_midpoint": [
        13.397586345683138,
        2.0669022712010556
      ],
      "bond_midpoint": [
        13.647589875137754,
        2.9998818264461433
      ],
      "orientation_vector": [
        1.0,
        0.0
      ],
      "half_bracket_size": 0.5000070589092322,
      "bond": [
        0,
        36
      ],
      "fragment": "F4",
      "backbone": true,
      "suspended_anchor_atom": null,
      "suspended_reason": null,
      "source_label": "F4/fragments[0]",
      "marker_id": "0",
      "side": "left",
      "connection_group": "$a",
      "marker_type_index": 2
    },
    {
      "id": 3,
      "bracket_kind": "backbone",
      "pairing_id": "F4/fragments[0]",
      "group_id": "$a:2",
      "ru_midpoint": [
        13.397586345683138,
        2.0669022712010556
      ],
      "bond_midpoint": [
        13.397607903775597,
        1.2009244993348385
      ],
      "orientation_vector": [
        1.0,
        0.0
      ],
      "half_bracket_size": 0.5000070589092322,
      "bond": [
        27,
        37
      ],
      "fragment": "F4",
      "backbone": true,
      "suspended_anchor_atom": null,
      "suspended_reason": null,
      "source_label": "F4/fragments[0]",
      "marker_id": "9",
      "side": "right",
      "connection_group": "$a",
      "marker_type_index": 2
    },
    {
      "id": 4,
      "bracket_kind": "backbone",
      "pairing_id": "F2/fragments[0]",
      "group_id": "<1:3",
      "ru_midpoint": [
        20.57506678103515,
        3.8332659306424874
      ],
      "bond_midpoint": [
        19.276118053172432,
        3.749923905202653
      ],
      "orientation_vector": [
        0.0,
        -1.0
      ],
      "half_bracket_size": 0.5001001599500253,
      "bond": [
        13,
        44
      ],
      "fragment": "F2",
      "backbone": true,
      "suspended_anchor_atom": null,
      "suspended_reason": null,
      "source_label": "F2/fragments[0]",
      "marker_id": "0",
      "side": "left",
      "connection_group": "<1",
      "marker_type_index": 3
    },
    {
      "id": 5,
      "bracket_kind": "backbone",
      "pairing_id": "F2/fragments[0]",
      "group_id": ">1:4",
      "ru_midpoint": [
        20.57506678103515,
        3.8332659306424874
      ],
      "bond_midpoint": [
        21.87396430506994,
        3.749897098096805
      ],
      "orientation_vector": [
        0.0,
        -1.0
      ],
      "half_bracket_size": 0.5001001599500253,
      "bond": [
        14,
        46
      ],
      "fragment": "F2",
      "backbone": true,
      "suspended_anchor_atom": null,
      "suspended_reason": null,
      "source_label": "F2/fragments[0]",
      "marker_id": "4",
      "side": "right",
      "connection_group": ">1",
      "marker_type_index": 4
    }
  ]
}
