
     RDKit          2D

  0  0  0  0  0  0  0  0  0  0999 V3000
M  V30 BEGIN CTAB
M  V30 COUNTS 8 7 1 0 0
M  V30 BEGIN ATOM
M  V30 1 H -2.165241 -0.448625 0.000000 0
M  V30 2 H 2.165066 0.051425 0.000000 0
M  V30 3 C -1.299216 0.051425 0.000000 0
M  V30 4 C -0.433191 -0.448625 0.000000 0
M  V30 5 C 0.432900 0.051425 0.000000 0
M  V30 6 Si 1.298983 -0.448625 0.000000 0 VAL=4
M  V30 7 C 1.298983 0.551407 0.000000 0
M  V30 8 C 1.298983 -1.448707 0.000000 0
M  V30 END ATOM
M  V30 BEGIN BOND
M  V30 1 1 3 4
M  V30 2 1 4 5
M  V30 3 1 5 6
M  V30 4 1 6 7
M  V30 5 1 6 8
M  V30 6 1 1 3
M  V30 7 1 2 6
M  V30 END BOND
M  V30 BEGIN SGROUP
M  V30 1 SRU 0 ATOMS=(4 1 2 3 6) CBONDS=(2 6 7) -
M  V30 BRKXYZ=(9 -1.7322 0.3015 0 -1.7322 -0.6987 0 0 0 0) BRKXYZ=(9 1.7320 0.-
M  V30 3015 0 1.7320 -0.6987 0 0 0 0)
M  V30 END SGROUP
M  V30 END CTAB
M  END
>  <BIGSMILES_BRACKET_RECORDS_JSON>
{
  "records": [
    {
      "id": 0,
      "bracket_kind": "backbone",
      "pairing_id": "F1/fragments[0]",
      "group_id": "<1:3",
      "ru_midpoint": [
        -0.00010410631136353876,
        -0.19863595330802358
      ],
      "bond_midpoint": [
        -1.7322282449119326,
        -0.1986
      ],
      "orientation_vector": [
        0.0,
        1.0
      ],
      "half_bracket_size": 0.5000501593752418,
      "bond": [
        0,
        2
      ],
      "fragment": "F1",
      "backbone": true,
      "suspended_anchor_atom": null,
      "suspended_reason": null,
      "source_label": "F1/fragments[0]",
      "marker_id": "0",
      "side": "left",
      "connection_group": "<1",
      "marker_type_index": 3
    },
    {
      "id": 1,
      "bracket_kind": "backbone",
      "pairing_id": "F1/fragments[0]",
      "group_id": ">1:4",
      "ru_midpoint": [
        -0.00010410631136353876,
        -0.19863595330802358
      ],
      "bond_midpoint": [
        1.732024236584048,
        -0.19860000000000005
      ],
      "orientation_vector": [
        0.0,
        1.0
      ],
      "half_bracket_size": 0.5000501593752418,
      "bond": [
        1,
        5
      ],
      "fragment": "F1",
      "backbone": true,
      "suspended_anchor_atom": null,
      "suspended_reason": null,
      "source_label": "F1/fragments[0]",
      "marker_id": "7",
      "side": "right",
      "connection_group": ">1",
      "marker_type_index": 4
    }
  ]
}
