
     RDKit          2D

  0  0  0  0  0  0  0  0  0  0999 V3000
M  V30 BEGIN CTAB
M  V30 COUNTS 13 12 1 0 0
M  V30 BEGIN ATOM
M  V30 1 H -1.299105 -0.448600 0.000000 0
M  V30 2 H 1.298735 0.051400 0.000000 0
M  V30 3 C -0.433159 0.051400 0.000000 0
M  V30 4 C 0.432788 -0.448600 0.000000 0
M  V30 5 O 0.432788 -1.448525 0.000000 0
M  V30 6 C 1.298680 -1.948619 0.000000 0
M  V30 7 C 1.298680 -2.948544 0.000000 0
M  V30 8 C 0.432615 -3.448474 0.000000 0
M  V30 9 C -0.433451 -2.948480 0.000000 0
M  V30 10 C 2.164573 -3.448638 0.000000 0
M  V30 11 C 2.164573 -4.448562 0.000000 0
M  V30 12 C 3.030465 -4.948656 0.000000 0
M  V30 13 C 3.030465 -5.948581 0.000000 0
M  V30 END ATOM
M  V30 BEGIN BOND
M  V30 1 1 3 4
M  V30 2 1 4 5
M  V30 3 1 5 6
M  V30 4 1 6 7
M  V30 5 1 7 8
M  V30 6 1 8 9
M  V30 7 1 7 10
M  V30 8 1 10 11
M  V30 9 1 11 12
M  V30 10 1 12 13
M  V30 11 1 1 3
M  V30 12 1 2 4
M  V30 END BOND
M  V30 BEGIN SGROUP
M  V30 1 SRU 0 ATOMS=(4 1 2 3 4) CBONDS=(2 11 12) -
M  V30 BRKXYZ=(9 -0.8661 0.3014 0 -0.8661 -0.6986 0 0 0 0) BRKXYZ=(9 0.8658 0.-
M  V30 3014 0 0.8658 -0.6986 0 0 0 0)
M  V30 END SGROUP
M  V30 END CTAB
M  END
>  <BIGSMILES_BRACKET_RECORDS_JSON>
{
  "records": [
    {
      "id": 0,
      "bracket_kind": "backbone",
      "pairing_id": "F1/fragments[0]",
      "group_id": "$a:2",
      "ru_midpoint": [
        -0.00018889495489948782,
        -0.1986060847739165
      ],
      "bond_midpoint": [
        -0.8661320098955794,
        -0.19859999999999994
      ],
      "orientation_vector": [
        0.0,
        1.0
      ],
      "half_bracket_size": 0.500000157129195,
      "bond": [
        0,
        2
      ],
      "fragment": "F1",
      "backbone": true,
      "suspended_anchor_atom": null,
      "suspended_reason": null,
      "source_label": "F1/fragments[0]",
      "marker_id": "0",
      "side": "left",
      "connection_group": "$a",
      "marker_type_index": 2
    },
    {
      "id": 1,
      "bracket_kind": "backbone",
      "pairing_id": "F1/fragments[0]",
      "group_id": "$a:2",
      "ru_midpoint": [
        -0.00018889495489948782,
        -0.1986060847739165
      ],
      "bond_midpoint": [
        0.8657612464811302,
        -0.19859999999999994
      ],
      "orientation_vector": [
        0.0,
        1.0
      ],
      "half_bracket_size": 0.500000157129195,
      "bond": [
        1,
        3
      ],
      "fragment": "F1",
      "backbone": true,
      "suspended_anchor_atom": null,
      "suspended_reason": null,
      "source_label": "F1/fragments[0]",
      "marker_id": "12",
      "side": "right",
      "connection_group": "$a",
      "marker_type_index": 2
    }
  ]
}
