
     RDKit          2D

  0  0  0  0  0  0  0  0  0  0999 V3000
M  V30 BEGIN CTAB
M  V30 COUNTS 10 9 3 0 0
M  V30 BEGIN ATOM
M  V30 1 H -3.031025 -0.448650 0.000000 0
M  V30 2 H 3.030626 0.051362 0.000000 0
M  V30 3 C -2.165029 0.051450 0.000000 0
M  V30 4 C -1.299033 -0.448650 0.000000 0
M  V30 5 C -1.299033 -1.448650 0.000000 0
M  V30 6 S -0.433144 0.051450 0.000000 0
M  V30 7 C 0.432824 -0.448650 0.000000 0
M  V30 8 C 0.432824 -1.448575 0.000000 0
M  V30 9 C 1.298763 0.051362 0.000000 0
M  V30 10 S 2.164695 -0.448650 0.000000 0
M  V30 END ATOM
M  V30 BEGIN BOND
M  V30 1 1 3 4
M  V30 2 1 4 5
M  V30 3 1 4 6
M  V30 4 1 7 8
M  V30 5 1 7 9
M  V30 6 1 9 10
M  V30 7 1 6 7
M  V30 8 1 1 3
M  V30 9 1 2 10
M  V30 END BOND
M  V30 BEGIN SGROUP
M  V30 1 SRU 0 ATOMS=(4 1 3 6 7) CBONDS=(2 7 8) -
M  V30 BRKXYZ=(9 -2.5980 0.3015 0 -2.5980 -0.6987 0 0 0 0) BRKXYZ=(9 -0.0002 0-
M  V30 .3015 0 -0.0002 -0.6987 0 0 0 0)
M  V30 2 SRU 0 ATOMS=(4 2 6 7 10) CBONDS=(2 7 9) -
M  V30 BRKXYZ=(9 -0.0002 0.3015 0 -0.0002 -0.6987 0 0 0 0) BRKXYZ=(9 2.5977 0.-
M  V30 3015 0 2.5977 -0.6987 0 0 0 0)
M  V30 3 SRU 0 ATOMS=(4 1 2 3 10) CBONDS=(2 8 9) -
M  V30 BRKXYZ=(9 -2.5980 1.3015 0 -2.5980 -1.6987 0 0 0 0) BRKXYZ=(9 2.5977 1.-
M  V30 3015 0 2.5977 -1.6987 0 0 0 0)
M  V30 END SGROUP
M  V30 END CTAB
M  END
>  <BIGSMILES_BRACKET_RECORDS_JSON>
{
  "records": [
    {
      "id": 0,
      "bracket_kind": "backbone",
      "pairing_id": "F1/fragments[0]",
      "group_id": "<1:3",
      "ru_midpoint": [
        -1.2991099422667791,
        -0.2486180172135052
      ],
      "bond_midpoint": [
        -2.598026766551726,
        -0.1986
      ],
      "orientation_vector": [
        0.0,
        1.0
      ],
      "half_bracket_size": 0.5001001599500248,
      "bond": [
        0,
        2
      ],
      "fragment": "F1",
      "backbone": true,
      "suspended_anchor_atom": null,
      "suspended_reason": null,
      "source_label": "F1/fragments[0]",
      "marker_id": "0",
      "side": "left",
      "connection_group": "<1",
      "marker_type_index": 3
    },
    {
      "id": 1,
      "bracket_kind": "backbone",
      "pairing_id": "F1/fragments[0]",
      "group_id": ">1:4",
      "ru_midpoint": [
        -1.2991099422667791,
        -0.2486180172135052
      ],
      "bond_midpoint": [
        -0.00016003609182591028,
        -0.1986
      ],
      "orientation_vector": [
        0.0,
        1.0
      ],
      "half_bracket_size": 0.5001001599500248,
      "bond": [
        5,
        6
      ],
      "fragment": "F1",
      "backbone": true,
      "suspended_anchor_atom": null,
      "suspended_reason": null,
      "source_label": "F1/fragments[0]",
      "marker_id": "5",
      "side": "right",
      "connection_group": ">1",
      "marker_type_index": 4
    },
    {
      "id": 2,
      "bracket_kind": "backbone",
      "pairing_id": "F1/fragments[1]",
      "group_id": "<1:3",
      "ru_midpoint": [
        1.2987106943528017,
        -0.14865972016507187
      ],
      "bond_midpoint": [
        -0.00016003609182591028,
        -0.1986
      ],
      "orientation_vector": [
        0.0,
        1.0
      ],
      "half_bracket_size": 0.5001001599500248,
      "bond": [
        5,
        6
      ],
      "fragment": "F1",
      "backbone": true,
      "suspended_anchor_atom": null,
      "suspended_reason": null,
      "source_label": "F1/fragments[1]",
      "marker_id": "0",
      "side": "left",
      "connection_group": "<1",
      "marker_type_index": 3
    },
    {
      "id": 3,
      "bracket_kind": "backbone",
      "pairing_id": "F1/fragments[1]",
      "group_id": ">1:4",
      "ru_midpoint": [
        1.2987106943528017,
        -0.14865972016507187
      ],
      "bond_midpoint": [
        2.597660519734874,
        -0.19864391583221774
      ],
      "orientation_vector": [
        0.0,
        1.0
      ],
      "half_bracket_size": 0.5001001599500248,
      "bond": [
        1,
        9
      ],
      "fragment": "F1",
      "backbone": true,
      "suspended_anchor_atom": null,
      "suspended_reason": null,
      "source_label": "F1/fragments[1]",
      "marker_id": "5",
      "side": "right",
      "connection_group": ">1",
      "marker_type_index": 4
    },
    {
      "id": 4,
      "bracket_kind": "backbone",
      "pairing_id": "F1/connected",
      "group_id": "$overall",
      "ru_midpoint": [
        -0.00020847948568447627,
        -0.19864699629602459
      ],
      "bond_midpoint": [
        -2.598026766551726,
        -0.1986
      ],
      "orientation_vector": [
        0.0,
        1.0
      ],
      "half_bracket_size": 1.5001004799499735,
      "bond": [
        0,
        2
      ],
      "fragment": "F1",
      "backbone": true,
      "suspended_anchor_atom": null,
      "suspended_reason": null,
      "source_label": "F1/connected",
      "marker_id": "connected-overall-left",
      "side": "left",
      "connection_group": "$overall",
      "marker_type_index": null
    },
    {
      "id": 5,
      "bracket_kind": "backbone",
      "pairing_id": "F1/connected",
      "group_id": "$overall",
      "ru_midpoint": [
        -0.00020847948568447627,
        -0.19864699629602459
      ],
      "bond_midpoint": [
        2.597660519734874,
        -0.19864391583221774
      ],
      "orientation_vector": [
        0.0,
        1.0
      ],
      "half_bracket_size": 1.5001004799499735,
      "bond": [
        1,
        9
      ],
      "fragment": "F1",
      "backbone": true,
      "suspended_anchor_atom": null,
      "suspended_reason": null,
      "source_label": "F1/connected",
      "marker_id": "connected-overall-right",
      "side": "right",
      "connection_group": "$overall",
      "marker_type_index": null
    }
  ]
}
